  0
SECTION
  2
ENTITIES
999
DXF created from EnergyPlus
999
Program Version,EnergyPlus, Version 9.0.1-bb7ca4f0da, YMD=2021.02.04 15:29
999
Polygon Action,THICKPOLYLINE
999
Color Scheme,Default
999
Text - True North
  0
TEXT
  8
1
  6
Continuous
 62
  3
 10
      -11.00000
 20
        3.00000
 30
        0.10000
 40
 .25
  1
True North
 41
 0.0
  7
MONOTXT
210
0.0
220
0.0
230
1.0
999
Text - Building Title
  0
TEXT
  8
1
  6
Continuous
 62
  3
 10
      -14.00000
 20
       -1.00000
 30
        0.10000
 40
 .4
  1
Building - model
 41
 0.0
  7
MONOTXT
210
0.0
220
0.0
230
1.0
999
North Arrow Stem
  0
3DFACE
  8
1
 62
  3
 10
      -10.00000
 20
        3.00000
 30
        0.10000
 11
      -10.00000
 21
        3.00000
 31
        0.00000
 12
      -10.00000
 22
        0.00000
 32
        0.00000
 13
      -10.00000
 23
        0.00000
 33
        0.10000
999
North Arrow Head 1
  0
3DFACE
  8
1
 62
  3
 10
      -10.00000
 20
        3.00000
 30
        0.10000
 11
      -10.00000
 21
        3.00000
 31
        0.00000
 12
      -10.50000
 22
        2.13397
 32
        0.00000
 13
      -10.50000
 23
        2.13397
 33
        0.10000
999
North Arrow Head 2
  0
3DFACE
  8
1
 62
  3
 10
      -10.00000
 20
        3.00000
 30
        0.10000
 11
      -10.00000
 21
        3.00000
 31
        0.00000
 12
       -9.50000
 22
        2.13397
 32
        0.00000
 13
       -9.50000
 23
        2.13397
 33
        0.10000
999
North Arrow Side 1
  0
3DFACE
  8
1
 62
  3
 10
      -10.50000
 20
        4.50000
 30
        0.10000
 11
      -10.50000
 21
        4.50000
 31
        0.00000
 12
      -10.50000
 22
        3.50000
 32
        0.00000
 13
      -10.50000
 23
        3.50000
 33
        0.10000
999
North Arrow Side 2
  0
3DFACE
  8
1
 62
  3
 10
      -10.50000
 20
        4.50000
 30
        0.10000
 11
      -10.50000
 21
        4.50000
 31
        0.00000
 12
       -9.50000
 22
        3.50000
 32
        0.00000
 13
       -9.50000
 23
        3.50000
 33
        0.10000
999
North Arrow Side 3
  0
3DFACE
  8
1
 62
  3
 10
       -9.50000
 20
        4.50000
 30
        0.10000
 11
       -9.50000
 21
        4.50000
 31
        0.00000
 12
       -9.50000
 22
        3.50000
 32
        0.00000
 13
       -9.50000
 23
        3.50000
 33
        0.10000
999
Zone Names
999
Zone=1:F1_CNE_BWC
999
Zone=2:F1_CNE_DORM1
999
Zone=3:F1_CNE_DORM2
999
Zone=4:F1_CNE_LIV
999
Zone=5:F1_CNW_BWC
999
Zone=6:F1_CNW_DORM1
999
Zone=7:F1_CNW_DORM2
999
Zone=8:F1_CNW_LIV
999
Zone=9:F1_CORE
999
Zone=10:F1_CSE_BWC
999
Zone=11:F1_CSE_DORM1
999
Zone=12:F1_CSE_DORM2
999
Zone=13:F1_CSE_LIV
999
Zone=14:F1_CSW_BWC
999
Zone=15:F1_CSW_DORM1
999
Zone=16:F1_CSW_DORM2
999
Zone=17:F1_CSW_LIV
999
Zone=18:F2_CNE_BWC
999
Zone=19:F2_CNE_DORM1
999
Zone=20:F2_CNE_DORM2
999
Zone=21:F2_CNE_LIV
999
Zone=22:F2_CNW_BWC
999
Zone=23:F2_CNW_DORM1
999
Zone=24:F2_CNW_DORM2
999
Zone=25:F2_CNW_LIV
999
Zone=26:F2_CORE
999
Zone=27:F2_CSE_BWC
999
Zone=28:F2_CSE_DORM1
999
Zone=29:F2_CSE_DORM2
999
Zone=30:F2_CSE_LIV
999
Zone=31:F2_CSW_BWC
999
Zone=32:F2_CSW_DORM1
999
Zone=33:F2_CSW_DORM2
999
Zone=34:F2_CSW_LIV
999
Zone=35:F3_CNE_BWC
999
Zone=36:F3_CNE_DORM1
999
Zone=37:F3_CNE_DORM2
999
Zone=38:F3_CNE_LIV
999
Zone=39:F3_CNW_BWC
999
Zone=40:F3_CNW_DORM1
999
Zone=41:F3_CNW_DORM2
999
Zone=42:F3_CNW_LIV
999
Zone=43:F3_CORE
999
Zone=44:F3_CSE_BWC
999
Zone=45:F3_CSE_DORM1
999
Zone=46:F3_CSE_DORM2
999
Zone=47:F3_CSE_LIV
999
Zone=48:F3_CSW_BWC
999
Zone=49:F3_CSW_DORM1
999
Zone=50:F3_CSW_DORM2
999
Zone=51:F3_CSW_LIV
999
Zone=52:F4_CNE_BWC
999
Zone=53:F4_CNE_DORM1
999
Zone=54:F4_CNE_DORM2
999
Zone=55:F4_CNE_LIV
999
Zone=56:F4_CNW_BWC
999
Zone=57:F4_CNW_DORM1
999
Zone=58:F4_CNW_DORM2
999
Zone=59:F4_CNW_LIV
999
Zone=60:F4_CORE
999
Zone=61:F4_CSE_BWC
999
Zone=62:F4_CSE_DORM1
999
Zone=63:F4_CSE_DORM2
999
Zone=64:F4_CSE_LIV
999
Zone=65:F4_CSW_BWC
999
Zone=66:F4_CSW_DORM1
999
Zone=67:F4_CSW_DORM2
999
Zone=68:F4_CSW_LIV
999
Zone=69:F5_CNE_BWC
999
Zone=70:F5_CNE_DORM1
999
Zone=71:F5_CNE_DORM2
999
Zone=72:F5_CNE_LIV
999
Zone=73:F5_CNW_BWC
999
Zone=74:F5_CNW_DORM1
999
Zone=75:F5_CNW_DORM2
999
Zone=76:F5_CNW_LIV
999
Zone=77:F5_CORE
999
Zone=78:F5_CSE_BWC
999
Zone=79:F5_CSE_DORM1
999
Zone=80:F5_CSE_DORM2
999
Zone=81:F5_CSE_LIV
999
Zone=82:F5_CSW_BWC
999
Zone=83:F5_CSW_DORM1
999
Zone=84:F5_CSW_DORM2
999
Zone=85:F5_CSW_LIV
999
F1_CNE_BWC:F1_CNE_BWC_WALL1_INT
  0
3DFACE
  8
F1_CNE_BWC
 62
 43
 10
       15.27000
 20
        8.50000
 30
        2.60000
 11
       15.27000
 21
        8.50000
 31
        0.00000
 12
       17.22000
 22
        8.50000
 32
        0.00000
 13
       17.22000
 23
        8.50000
 33
        2.60000
999
F1_CNE_BWC:F1_CNE_BWC_WALL2_EXT
  0
3DFACE
  8
F1_CNE_BWC
 62
 43
 10
       17.22000
 20
        8.50000
 30
        2.60000
 11
       17.22000
 21
        8.50000
 31
        0.00000
 12
       17.22000
 22
       10.25000
 32
        0.00000
 13
       17.22000
 23
       10.25000
 33
        2.60000
999
F1_CNE_BWC:F1_CNE_BWC_WINDOW2
  0
3DFACE
  8
F1_CNE_BWC
 62
143
 10
       17.22000
 20
        8.70000
 30
        2.10000
 11
       17.22000
 21
        8.70000
 31
        1.50000
 12
       17.22000
 22
        9.30000
 32
        1.50000
 13
       17.22000
 23
        9.30000
 33
        2.10000
999
F1_CNE_BWC:F1_CNE_BWC_WALL3_INT
  0
3DFACE
  8
F1_CNE_BWC
 62
 43
 10
       17.22000
 20
       10.25000
 30
        2.60000
 11
       17.22000
 21
       10.25000
 31
        0.00000
 12
       15.27000
 22
       10.25000
 32
        0.00000
 13
       15.27000
 23
       10.25000
 33
        2.60000
999
F1_CNE_BWC:F1_CNE_BWC_WALL4_INT
  0
3DFACE
  8
F1_CNE_BWC
 62
 43
 10
       15.27000
 20
       10.25000
 30
        2.60000
 11
       15.27000
 21
       10.25000
 31
        0.00000
 12
       15.27000
 22
        8.50000
 32
        0.00000
 13
       15.27000
 23
        8.50000
 33
        2.60000
999
F1_CNE_BWC:F1_CNE_BWC_DOOR4
  0
3DFACE
  8
F1_CNE_BWC
 62
 45
 10
       15.27000
 20
       10.10000
 30
        2.10000
 11
       15.27000
 21
       10.10000
 31
        0.00000
 12
       15.27000
 22
        9.30000
 32
        0.00000
 13
       15.27000
 23
        9.30000
 33
        2.10000
999
F1_CNE_BWC:F1_CNE_BWC_FLOOR
  0
3DFACE
  8
F1_CNE_BWC
 62
  8
 10
       17.22000
 20
       10.25000
 30
        0.00000
 11
       17.22000
 21
        8.50000
 31
        0.00000
 12
       15.27000
 22
        8.50000
 32
        0.00000
 13
       15.27000
 23
       10.25000
 33
        0.00000
999
F1_CNE_BWC:F1_CNE_BWC_ROOF
  0
3DFACE
  8
F1_CNE_BWC
 62
 15
 10
       15.27000
 20
       10.25000
 30
        2.60000
 11
       15.27000
 21
        8.50000
 31
        2.60000
 12
       17.22000
 22
        8.50000
 32
        2.60000
 13
       17.22000
 23
       10.25000
 33
        2.60000
999
F1_CNE_DORM1:F1_CNE_DORM1_WALL2_EXT
  0
3DFACE
  8
F1_CNE_DORM1
 62
 43
 10
       17.22000
 20
       10.25000
 30
        2.60000
 11
       17.22000
 21
       10.25000
 31
        0.00000
 12
       17.22000
 22
       13.30000
 32
        0.00000
 13
       17.22000
 23
       13.30000
 33
        2.60000
999
F1_CNE_DORM1:F1_CNE_DORM1_WALL3_EXT
  0
3DFACE
  8
F1_CNE_DORM1
 62
 43
 10
       17.22000
 20
       13.30000
 30
        2.60000
 11
       17.22000
 21
       13.30000
 31
        0.00000
 12
       14.27000
 22
       13.30000
 32
        0.00000
 13
       14.27000
 23
       13.30000
 33
        2.60000
999
F1_CNE_DORM1:F1_CNE_DORM1_WINDOW3
  0
3DFACE
  8
F1_CNE_DORM1
 62
143
 10
       16.34500
 20
       13.30000
 30
        2.30000
 11
       16.34500
 21
       13.30000
 31
        1.10000
 12
       15.14500
 22
       13.30000
 32
        1.10000
 13
       15.14500
 23
       13.30000
 33
        2.30000
999
F1_CNE_DORM1:F1_CNE_DORM1_WALL4_INT
  0
3DFACE
  8
F1_CNE_DORM1
 62
 43
 10
       14.27000
 20
       13.30000
 30
        2.60000
 11
       14.27000
 21
       13.30000
 31
        0.00000
 12
       14.27000
 22
       10.25000
 32
        0.00000
 13
       14.27000
 23
       10.25000
 33
        2.60000
999
F1_CNE_DORM1:F1_CNE_DORM1_WALL11_INT
  0
3DFACE
  8
F1_CNE_DORM1
 62
 43
 10
       14.27000
 20
       10.25000
 30
        2.60000
 11
       14.27000
 21
       10.25000
 31
        0.00000
 12
       15.27000
 22
       10.25000
 32
        0.00000
 13
       15.27000
 23
       10.25000
 33
        2.60000
999
F1_CNE_DORM1:F1_CNE_DORM1_DOOR1
  0
3DFACE
  8
F1_CNE_DORM1
 62
 45
 10
       14.37000
 20
       10.25000
 30
        2.10000
 11
       14.37000
 21
       10.25000
 31
        0.00000
 12
       15.17000
 22
       10.25000
 32
        0.00000
 13
       15.17000
 23
       10.25000
 33
        2.10000
999
F1_CNE_DORM1:F1_CNE_DORM1_WALL12_INT
  0
3DFACE
  8
F1_CNE_DORM1
 62
 43
 10
       15.27000
 20
       10.25000
 30
        2.60000
 11
       15.27000
 21
       10.25000
 31
        0.00000
 12
       17.22000
 22
       10.25000
 32
        0.00000
 13
       17.22000
 23
       10.25000
 33
        2.60000
999
F1_CNE_DORM1:F1_CNE_DORM1_FLOOR
  0
3DFACE
  8
F1_CNE_DORM1
 62
  8
 10
       17.22000
 20
       13.30000
 30
        0.00000
 11
       17.22000
 21
       10.25000
 31
        0.00000
 12
       14.27000
 22
       10.25000
 32
        0.00000
 13
       14.27000
 23
       13.30000
 33
        0.00000
999
F1_CNE_DORM1:F1_CNE_DORM1_ROOF
  0
3DFACE
  8
F1_CNE_DORM1
 62
 15
 10
       14.27000
 20
       13.30000
 30
        2.60000
 11
       14.27000
 21
       10.25000
 31
        2.60000
 12
       17.22000
 22
       10.25000
 32
        2.60000
 13
       17.22000
 23
       13.30000
 33
        2.60000
999
F1_CNE_DORM2:F1_CNE_DORM2_WALL1_INT
  0
3DFACE
  8
F1_CNE_DORM2
 62
 43
 10
       11.46000
 20
       10.25000
 30
        2.60000
 11
       11.46000
 21
       10.25000
 31
        0.00000
 12
       14.27000
 22
       10.25000
 32
        0.00000
 13
       14.27000
 23
       10.25000
 33
        2.60000
999
F1_CNE_DORM2:F1_CNE_DORM2_DOOR1
  0
3DFACE
  8
F1_CNE_DORM2
 62
 45
 10
       13.37000
 20
       10.25000
 30
        2.10000
 11
       13.37000
 21
       10.25000
 31
        0.00000
 12
       14.17000
 22
       10.25000
 32
        0.00000
 13
       14.17000
 23
       10.25000
 33
        2.10000
999
F1_CNE_DORM2:F1_CNE_DORM2_WALL2_INT
  0
3DFACE
  8
F1_CNE_DORM2
 62
 43
 10
       14.27000
 20
       10.25000
 30
        2.60000
 11
       14.27000
 21
       10.25000
 31
        0.00000
 12
       14.27000
 22
       13.30000
 32
        0.00000
 13
       14.27000
 23
       13.30000
 33
        2.60000
999
F1_CNE_DORM2:F1_CNE_DORM2_WALL3_EXT
  0
3DFACE
  8
F1_CNE_DORM2
 62
 43
 10
       14.27000
 20
       13.30000
 30
        2.60000
 11
       14.27000
 21
       13.30000
 31
        0.00000
 12
       11.46000
 22
       13.30000
 32
        0.00000
 13
       11.46000
 23
       13.30000
 33
        2.60000
999
F1_CNE_DORM2:F1_CNE_DORM2_WINDOW3
  0
3DFACE
  8
F1_CNE_DORM2
 62
143
 10
       13.46500
 20
       13.30000
 30
        2.30000
 11
       13.46500
 21
       13.30000
 31
        1.10000
 12
       12.26500
 22
       13.30000
 32
        1.10000
 13
       12.26500
 23
       13.30000
 33
        2.30000
999
F1_CNE_DORM2:F1_CNE_DORM2_WALL4_EXT
  0
3DFACE
  8
F1_CNE_DORM2
 62
 43
 10
       11.46000
 20
       13.30000
 30
        2.60000
 11
       11.46000
 21
       13.30000
 31
        0.00000
 12
       11.46000
 22
       10.25000
 32
        0.00000
 13
       11.46000
 23
       10.25000
 33
        2.60000
999
F1_CNE_DORM2:F1_CNE_DORM2_FLOOR
  0
3DFACE
  8
F1_CNE_DORM2
 62
  8
 10
       14.27000
 20
       13.30000
 30
        0.00000
 11
       14.27000
 21
       10.25000
 31
        0.00000
 12
       11.46000
 22
       10.25000
 32
        0.00000
 13
       11.46000
 23
       13.30000
 33
        0.00000
999
F1_CNE_DORM2:F1_CNE_DORM2_ROOF
  0
3DFACE
  8
F1_CNE_DORM2
 62
 15
 10
       11.46000
 20
       13.30000
 30
        2.60000
 11
       11.46000
 21
       10.25000
 31
        2.60000
 12
       14.27000
 22
       10.25000
 32
        2.60000
 13
       14.27000
 23
       13.30000
 33
        2.60000
999
F1_CNE_LIV:F1_CNE_LIV_WALL1_INT
  0
3DFACE
  8
F1_CNE_LIV
 62
 43
 10
        9.81000
 20
        6.65000
 30
        2.60000
 11
        9.81000
 21
        6.65000
 31
        0.00000
 12
       17.22000
 22
        6.65000
 32
        0.00000
 13
       17.22000
 23
        6.65000
 33
        2.60000
999
F1_CNE_LIV:F1_CNE_LIV_WALL4_INT
  0
3DFACE
  8
F1_CNE_LIV
 62
 43
 10
        9.81000
 20
       10.25000
 30
        2.60000
 11
        9.81000
 21
       10.25000
 31
        0.00000
 12
        9.81000
 22
        6.65000
 32
        0.00000
 13
        9.81000
 23
        6.65000
 33
        2.60000
999
F1_CNE_LIV:F1_CNE_LIV_DOOR4
  0
3DFACE
  8
F1_CNE_LIV
 62
 45
 10
        9.81000
 20
        9.95000
 30
        2.10000
 11
        9.81000
 21
        9.95000
 31
        0.00000
 12
        9.81000
 22
        9.15000
 32
        0.00000
 13
        9.81000
 23
        9.15000
 33
        2.10000
999
F1_CNE_LIV:F1_CNE_LIV_WALL21_EXT
  0
3DFACE
  8
F1_CNE_LIV
 62
 43
 10
       17.22000
 20
        6.65000
 30
        2.60000
 11
       17.22000
 21
        6.65000
 31
        0.00000
 12
       17.22000
 22
        8.50000
 32
        0.00000
 13
       17.22000
 23
        8.50000
 33
        2.60000
999
F1_CNE_LIV:F1_CNE_LIV_WINDOW2
  0
3DFACE
  8
F1_CNE_LIV
 62
143
 10
       17.22000
 20
        7.07500
 30
        2.30000
 11
       17.22000
 21
        7.07500
 31
        1.10000
 12
       17.22000
 22
        8.07500
 32
        1.10000
 13
       17.22000
 23
        8.07500
 33
        2.30000
999
F1_CNE_LIV:F1_CNE_LIV_WALL22_INT
  0
3DFACE
  8
F1_CNE_LIV
 62
 43
 10
       15.27000
 20
        8.50000
 30
        2.60000
 11
       15.27000
 21
        8.50000
 31
        0.00000
 12
       15.27000
 22
       10.25000
 32
        0.00000
 13
       15.27000
 23
       10.25000
 33
        2.60000
999
F1_CNE_LIV:F1_CNE_LIV_DOOR2
  0
3DFACE
  8
F1_CNE_LIV
 62
 45
 10
       15.27000
 20
        9.30000
 30
        2.10000
 11
       15.27000
 21
        9.30000
 31
        0.00000
 12
       15.27000
 22
       10.10000
 32
        0.00000
 13
       15.27000
 23
       10.10000
 33
        2.10000
999
F1_CNE_LIV:F1_CNE_LIV_WALL31_INT
  0
3DFACE
  8
F1_CNE_LIV
 62
 43
 10
       17.22000
 20
        8.50000
 30
        2.60000
 11
       17.22000
 21
        8.50000
 31
        0.00000
 12
       15.27000
 22
        8.50000
 32
        0.00000
 13
       15.27000
 23
        8.50000
 33
        2.60000
999
F1_CNE_LIV:F1_CNE_LIV_WALL32_INT
  0
3DFACE
  8
F1_CNE_LIV
 62
 43
 10
       15.27000
 20
       10.25000
 30
        2.60000
 11
       15.27000
 21
       10.25000
 31
        0.00000
 12
       14.27000
 22
       10.25000
 32
        0.00000
 13
       14.27000
 23
       10.25000
 33
        2.60000
999
F1_CNE_LIV:F1_CNE_LIV_DOOR31
  0
3DFACE
  8
F1_CNE_LIV
 62
 45
 10
       15.17000
 20
       10.25000
 30
        2.10000
 11
       15.17000
 21
       10.25000
 31
        0.00000
 12
       14.37000
 22
       10.25000
 32
        0.00000
 13
       14.37000
 23
       10.25000
 33
        2.10000
999
F1_CNE_LIV:F1_CNE_LIV_WALL33_INT
  0
3DFACE
  8
F1_CNE_LIV
 62
 43
 10
       14.27000
 20
       10.25000
 30
        2.60000
 11
       14.27000
 21
       10.25000
 31
        0.00000
 12
       11.46000
 22
       10.25000
 32
        0.00000
 13
       11.46000
 23
       10.25000
 33
        2.60000
999
F1_CNE_LIV:F1_CNE_LIV_DOOR32
  0
3DFACE
  8
F1_CNE_LIV
 62
 45
 10
       14.17000
 20
       10.25000
 30
        2.10000
 11
       14.17000
 21
       10.25000
 31
        0.00000
 12
       13.37000
 22
       10.25000
 32
        0.00000
 13
       13.37000
 23
       10.25000
 33
        2.10000
999
F1_CNE_LIV:F1_CNE_LIV_WALL34_EXT
  0
3DFACE
  8
F1_CNE_LIV
 62
 43
 10
       11.46000
 20
       10.25000
 30
        2.60000
 11
       11.46000
 21
       10.25000
 31
        0.00000
 12
        9.81000
 22
       10.25000
 32
        0.00000
 13
        9.81000
 23
       10.25000
 33
        2.60000
999
F1_CNE_LIV:F1_CNE_LIV_WINDOW3
  0
3DFACE
  8
F1_CNE_LIV
 62
143
 10
       11.13500
 20
       10.25000
 30
        2.30000
 11
       11.13500
 21
       10.25000
 31
        0.70000
 12
       10.13500
 22
       10.25000
 32
        0.70000
 13
       10.13500
 23
       10.25000
 33
        2.30000
999
F1_CNE_LIV:F1_CNE_LIV_FLOOR
  0
POLYLINE
  8
F1_CNE_LIV
 62
  8
 66
  1
 10
 0.0
 20
 0.0
 30
        0.00000
 70
   9
 40
 0.55
 41
 0.55
  0
VERTEX
  8
F1_CNE_LIV
 10
       17.22000
 20
        8.50000
 30
        0.00000
  0
VERTEX
  8
F1_CNE_LIV
 10
       17.22000
 20
        6.65000
 30
        0.00000
  0
VERTEX
  8
F1_CNE_LIV
 10
        9.81000
 20
        6.65000
 30
        0.00000
  0
VERTEX
  8
F1_CNE_LIV
 10
        9.81000
 20
       10.25000
 30
        0.00000
  0
VERTEX
  8
F1_CNE_LIV
 10
       15.27000
 20
       10.25000
 30
        0.00000
  0
VERTEX
  8
F1_CNE_LIV
 10
       15.27000
 20
        8.50000
 30
        0.00000
  0
SEQEND
  8
F1_CNE_LIV
999
F1_CNE_LIV:F1_CNE_LIV_ROOF
  0
POLYLINE
  8
F1_CNE_LIV
 62
 15
 66
  1
 10
 0.0
 20
 0.0
 30
        2.60000
 70
   9
 40
 0.55
 41
 0.55
  0
VERTEX
  8
F1_CNE_LIV
 10
        9.81000
 20
       10.25000
 30
        2.60000
  0
VERTEX
  8
F1_CNE_LIV
 10
        9.81000
 20
        6.65000
 30
        2.60000
  0
VERTEX
  8
F1_CNE_LIV
 10
       17.22000
 20
        6.65000
 30
        2.60000
  0
VERTEX
  8
F1_CNE_LIV
 10
       17.22000
 20
        8.50000
 30
        2.60000
  0
VERTEX
  8
F1_CNE_LIV
 10
       15.27000
 20
        8.50000
 30
        2.60000
  0
VERTEX
  8
F1_CNE_LIV
 10
       15.27000
 20
       10.25000
 30
        2.60000
  0
SEQEND
  8
F1_CNE_LIV
999
F1_CNW_BWC:F1_CNW_BWC_WALL1_INT
  0
3DFACE
  8
F1_CNW_BWC
 62
 43
 10
        0.00000
 20
        8.50000
 30
        2.60000
 11
        0.00000
 21
        8.50000
 31
        0.00000
 12
        1.95000
 22
        8.50000
 32
        0.00000
 13
        1.95000
 23
        8.50000
 33
        2.60000
999
F1_CNW_BWC:F1_CNW_BWC_WALL2_INT
  0
3DFACE
  8
F1_CNW_BWC
 62
 43
 10
        1.95000
 20
        8.50000
 30
        2.60000
 11
        1.95000
 21
        8.50000
 31
        0.00000
 12
        1.95000
 22
       10.25000
 32
        0.00000
 13
        1.95000
 23
       10.25000
 33
        2.60000
999
F1_CNW_BWC:F1_CNW_BWC_DOOR2
  0
3DFACE
  8
F1_CNW_BWC
 62
 45
 10
        1.95000
 20
        9.30000
 30
        2.10000
 11
        1.95000
 21
        9.30000
 31
        0.00000
 12
        1.95000
 22
       10.10000
 32
        0.00000
 13
        1.95000
 23
       10.10000
 33
        2.10000
999
F1_CNW_BWC:F1_CNW_BWC_WALL3_INT
  0
3DFACE
  8
F1_CNW_BWC
 62
 43
 10
        1.95000
 20
       10.25000
 30
        2.60000
 11
        1.95000
 21
       10.25000
 31
        0.00000
 12
        0.00000
 22
       10.25000
 32
        0.00000
 13
        0.00000
 23
       10.25000
 33
        2.60000
999
F1_CNW_BWC:F1_CNW_BWC_WALL4_EXT
  0
3DFACE
  8
F1_CNW_BWC
 62
 43
 10
        0.00000
 20
       10.25000
 30
        2.60000
 11
        0.00000
 21
       10.25000
 31
        0.00000
 12
        0.00000
 22
        8.50000
 32
        0.00000
 13
        0.00000
 23
        8.50000
 33
        2.60000
999
F1_CNW_BWC:F1_CNW_BWC_WINDOW4
  0
3DFACE
  8
F1_CNW_BWC
 62
143
 10
        0.00000
 20
        9.30000
 30
        2.10000
 11
        0.00000
 21
        9.30000
 31
        1.50000
 12
        0.00000
 22
        8.70000
 32
        1.50000
 13
        0.00000
 23
        8.70000
 33
        2.10000
999
F1_CNW_BWC:F1_CNW_BWC_FLOOR
  0
3DFACE
  8
F1_CNW_BWC
 62
  8
 10
        1.95000
 20
       10.25000
 30
        0.00000
 11
        1.95000
 21
        8.50000
 31
        0.00000
 12
        0.00000
 22
        8.50000
 32
        0.00000
 13
        0.00000
 23
       10.25000
 33
        0.00000
999
F1_CNW_BWC:F1_CNW_BWC_ROOF
  0
3DFACE
  8
F1_CNW_BWC
 62
 15
 10
        0.00000
 20
       10.25000
 30
        2.60000
 11
        0.00000
 21
        8.50000
 31
        2.60000
 12
        1.95000
 22
        8.50000
 32
        2.60000
 13
        1.95000
 23
       10.25000
 33
        2.60000
999
F1_CNW_DORM1:F1_CNW_DORM1_WALL2_INT
  0
3DFACE
  8
F1_CNW_DORM1
 62
 43
 10
        2.95000
 20
       10.25000
 30
        2.60000
 11
        2.95000
 21
       10.25000
 31
        0.00000
 12
        2.95000
 22
       13.30000
 32
        0.00000
 13
        2.95000
 23
       13.30000
 33
        2.60000
999
F1_CNW_DORM1:F1_CNW_DORM1_WALL3_EXT
  0
3DFACE
  8
F1_CNW_DORM1
 62
 43
 10
        2.95000
 20
       13.30000
 30
        2.60000
 11
        2.95000
 21
       13.30000
 31
        0.00000
 12
        0.00000
 22
       13.30000
 32
        0.00000
 13
        0.00000
 23
       13.30000
 33
        2.60000
999
F1_CNW_DORM1:F1_CNW_DORM1_WINDOW3
  0
3DFACE
  8
F1_CNW_DORM1
 62
143
 10
        2.07500
 20
       13.30000
 30
        2.30000
 11
        2.07500
 21
       13.30000
 31
        1.10000
 12
        0.87500
 22
       13.30000
 32
        1.10000
 13
        0.87500
 23
       13.30000
 33
        2.30000
999
F1_CNW_DORM1:F1_CNW_DORM1_WALL4_EXT
  0
3DFACE
  8
F1_CNW_DORM1
 62
 43
 10
        0.00000
 20
       13.30000
 30
        2.60000
 11
        0.00000
 21
       13.30000
 31
        0.00000
 12
        0.00000
 22
       10.25000
 32
        0.00000
 13
        0.00000
 23
       10.25000
 33
        2.60000
999
F1_CNW_DORM1:F1_CNW_DORM1_WALL11_INT
  0
3DFACE
  8
F1_CNW_DORM1
 62
 43
 10
        0.00000
 20
       10.25000
 30
        2.60000
 11
        0.00000
 21
       10.25000
 31
        0.00000
 12
        1.95000
 22
       10.25000
 32
        0.00000
 13
        1.95000
 23
       10.25000
 33
        2.60000
999
F1_CNW_DORM1:F1_CNW_DORM1_WALL12_INT
  0
3DFACE
  8
F1_CNW_DORM1
 62
 43
 10
        1.95000
 20
       10.25000
 30
        2.60000
 11
        1.95000
 21
       10.25000
 31
        0.00000
 12
        2.95000
 22
       10.25000
 32
        0.00000
 13
        2.95000
 23
       10.25000
 33
        2.60000
999
F1_CNW_DORM1:F1_CNW_DORM1_DOOR1
  0
3DFACE
  8
F1_CNW_DORM1
 62
 45
 10
        2.05000
 20
       10.25000
 30
        2.10000
 11
        2.05000
 21
       10.25000
 31
        0.00000
 12
        2.85000
 22
       10.25000
 32
        0.00000
 13
        2.85000
 23
       10.25000
 33
        2.10000
999
F1_CNW_DORM1:F1_CNW_DORM1_FLOOR
  0
3DFACE
  8
F1_CNW_DORM1
 62
  8
 10
        2.95000
 20
       13.30000
 30
        0.00000
 11
        2.95000
 21
       10.25000
 31
        0.00000
 12
        0.00000
 22
       10.25000
 32
        0.00000
 13
        0.00000
 23
       13.30000
 33
        0.00000
999
F1_CNW_DORM1:F1_CNW_DORM1_ROOF
  0
3DFACE
  8
F1_CNW_DORM1
 62
 15
 10
        0.00000
 20
       13.30000
 30
        2.60000
 11
        0.00000
 21
       10.25000
 31
        2.60000
 12
        2.95000
 22
       10.25000
 32
        2.60000
 13
        2.95000
 23
       13.30000
 33
        2.60000
999
F1_CNW_DORM2:F1_CNW_DORM2_WALL1_INT
  0
3DFACE
  8
F1_CNW_DORM2
 62
 43
 10
        2.95000
 20
       10.25000
 30
        2.60000
 11
        2.95000
 21
       10.25000
 31
        0.00000
 12
        5.76000
 22
       10.25000
 32
        0.00000
 13
        5.76000
 23
       10.25000
 33
        2.60000
999
F1_CNW_DORM2:F1_CNW_DORM2_DOOR1
  0
3DFACE
  8
F1_CNW_DORM2
 62
 45
 10
        3.05000
 20
       10.25000
 30
        2.10000
 11
        3.05000
 21
       10.25000
 31
        0.00000
 12
        3.85000
 22
       10.25000
 32
        0.00000
 13
        3.85000
 23
       10.25000
 33
        2.10000
999
F1_CNW_DORM2:F1_CNW_DORM2_WALL2_EXT
  0
3DFACE
  8
F1_CNW_DORM2
 62
 43
 10
        5.76000
 20
       10.25000
 30
        2.60000
 11
        5.76000
 21
       10.25000
 31
        0.00000
 12
        5.76000
 22
       13.30000
 32
        0.00000
 13
        5.76000
 23
       13.30000
 33
        2.60000
999
F1_CNW_DORM2:F1_CNW_DORM2_WALL3_EXT
  0
3DFACE
  8
F1_CNW_DORM2
 62
 43
 10
        5.76000
 20
       13.30000
 30
        2.60000
 11
        5.76000
 21
       13.30000
 31
        0.00000
 12
        2.95000
 22
       13.30000
 32
        0.00000
 13
        2.95000
 23
       13.30000
 33
        2.60000
999
F1_CNW_DORM2:F1_CNW_DORM2_WINDOW3
  0
3DFACE
  8
F1_CNW_DORM2
 62
143
 10
        4.95500
 20
       13.30000
 30
        2.30000
 11
        4.95500
 21
       13.30000
 31
        1.10000
 12
        3.75500
 22
       13.30000
 32
        1.10000
 13
        3.75500
 23
       13.30000
 33
        2.30000
999
F1_CNW_DORM2:F1_CNW_DORM2_WALL4_INT
  0
3DFACE
  8
F1_CNW_DORM2
 62
 43
 10
        2.95000
 20
       13.30000
 30
        2.60000
 11
        2.95000
 21
       13.30000
 31
        0.00000
 12
        2.95000
 22
       10.25000
 32
        0.00000
 13
        2.95000
 23
       10.25000
 33
        2.60000
999
F1_CNW_DORM2:F1_CNW_DORM2_FLOOR
  0
3DFACE
  8
F1_CNW_DORM2
 62
  8
 10
        5.76000
 20
       13.30000
 30
        0.00000
 11
        5.76000
 21
       10.25000
 31
        0.00000
 12
        2.95000
 22
       10.25000
 32
        0.00000
 13
        2.95000
 23
       13.30000
 33
        0.00000
999
F1_CNW_DORM2:F1_CNW_DORM2_ROOF
  0
3DFACE
  8
F1_CNW_DORM2
 62
 15
 10
        2.95000
 20
       13.30000
 30
        2.60000
 11
        2.95000
 21
       10.25000
 31
        2.60000
 12
        5.76000
 22
       10.25000
 32
        2.60000
 13
        5.76000
 23
       13.30000
 33
        2.60000
999
F1_CNW_LIV:F1_CNW_LIV_WALL1_INT
  0
3DFACE
  8
F1_CNW_LIV
 62
 43
 10
        0.00000
 20
        6.65000
 30
        2.60000
 11
        0.00000
 21
        6.65000
 31
        0.00000
 12
        7.41000
 22
        6.65000
 32
        0.00000
 13
        7.41000
 23
        6.65000
 33
        2.60000
999
F1_CNW_LIV:F1_CNW_LIV_WALL2_INT
  0
3DFACE
  8
F1_CNW_LIV
 62
 43
 10
        7.41000
 20
        6.65000
 30
        2.60000
 11
        7.41000
 21
        6.65000
 31
        0.00000
 12
        7.41000
 22
       10.25000
 32
        0.00000
 13
        7.41000
 23
       10.25000
 33
        2.60000
999
F1_CNW_LIV:F1_CNW_LIV_DOOR2
  0
3DFACE
  8
F1_CNW_LIV
 62
 45
 10
        7.41000
 20
        9.15000
 30
        2.10000
 11
        7.41000
 21
        9.15000
 31
        0.00000
 12
        7.41000
 22
        9.95000
 32
        0.00000
 13
        7.41000
 23
        9.95000
 33
        2.10000
999
F1_CNW_LIV:F1_CNW_LIV_WALL31_EXT
  0
3DFACE
  8
F1_CNW_LIV
 62
 43
 10
        7.41000
 20
       10.25000
 30
        2.60000
 11
        7.41000
 21
       10.25000
 31
        0.00000
 12
        5.76000
 22
       10.25000
 32
        0.00000
 13
        5.76000
 23
       10.25000
 33
        2.60000
999
F1_CNW_LIV:F1_CNW_LIV_WINDOW3
  0
3DFACE
  8
F1_CNW_LIV
 62
143
 10
        7.08500
 20
       10.25000
 30
        2.30000
 11
        7.08500
 21
       10.25000
 31
        0.70000
 12
        6.08500
 22
       10.25000
 32
        0.70000
 13
        6.08500
 23
       10.25000
 33
        2.30000
999
F1_CNW_LIV:F1_CNW_LIV_WALL32_INT
  0
3DFACE
  8
F1_CNW_LIV
 62
 43
 10
        5.76000
 20
       10.25000
 30
        2.60000
 11
        5.76000
 21
       10.25000
 31
        0.00000
 12
        2.95000
 22
       10.25000
 32
        0.00000
 13
        2.95000
 23
       10.25000
 33
        2.60000
999
F1_CNW_LIV:F1_CNW_LIV_DOOR31
  0
3DFACE
  8
F1_CNW_LIV
 62
 45
 10
        3.85000
 20
       10.25000
 30
        2.10000
 11
        3.85000
 21
       10.25000
 31
        0.00000
 12
        3.05000
 22
       10.25000
 32
        0.00000
 13
        3.05000
 23
       10.25000
 33
        2.10000
999
F1_CNW_LIV:F1_CNW_LIV_WALL33_INT
  0
3DFACE
  8
F1_CNW_LIV
 62
 43
 10
        2.95000
 20
       10.25000
 30
        2.60000
 11
        2.95000
 21
       10.25000
 31
        0.00000
 12
        1.95000
 22
       10.25000
 32
        0.00000
 13
        1.95000
 23
       10.25000
 33
        2.60000
999
F1_CNW_LIV:F1_CNW_LIV_DOOR32
  0
3DFACE
  8
F1_CNW_LIV
 62
 45
 10
        2.85000
 20
       10.25000
 30
        2.10000
 11
        2.85000
 21
       10.25000
 31
        0.00000
 12
        2.05000
 22
       10.25000
 32
        0.00000
 13
        2.05000
 23
       10.25000
 33
        2.10000
999
F1_CNW_LIV:F1_CNW_LIV_WALL34_INT
  0
3DFACE
  8
F1_CNW_LIV
 62
 43
 10
        1.95000
 20
        8.50000
 30
        2.60000
 11
        1.95000
 21
        8.50000
 31
        0.00000
 12
        0.00000
 22
        8.50000
 32
        0.00000
 13
        0.00000
 23
        8.50000
 33
        2.60000
999
F1_CNW_LIV:F1_CNW_LIV_WALL41_INT
  0
3DFACE
  8
F1_CNW_LIV
 62
 43
 10
        1.95000
 20
       10.25000
 30
        2.60000
 11
        1.95000
 21
       10.25000
 31
        0.00000
 12
        1.95000
 22
        8.50000
 32
        0.00000
 13
        1.95000
 23
        8.50000
 33
        2.60000
999
F1_CNW_LIV:F1_CNW_LIV_DOOR4
  0
3DFACE
  8
F1_CNW_LIV
 62
 45
 10
        1.95000
 20
       10.10000
 30
        2.10000
 11
        1.95000
 21
       10.10000
 31
        0.00000
 12
        1.95000
 22
        9.30000
 32
        0.00000
 13
        1.95000
 23
        9.30000
 33
        2.10000
999
F1_CNW_LIV:F1_CNW_LIV_WALL42_EXT
  0
3DFACE
  8
F1_CNW_LIV
 62
 43
 10
        0.00000
 20
        8.50000
 30
        2.60000
 11
        0.00000
 21
        8.50000
 31
        0.00000
 12
        0.00000
 22
        6.65000
 32
        0.00000
 13
        0.00000
 23
        6.65000
 33
        2.60000
999
F1_CNW_LIV:F1_CNW_LIV_WINDOW4
  0
3DFACE
  8
F1_CNW_LIV
 62
143
 10
        0.00000
 20
        8.07500
 30
        2.30000
 11
        0.00000
 21
        8.07500
 31
        1.10000
 12
        0.00000
 22
        7.07500
 32
        1.10000
 13
        0.00000
 23
        7.07500
 33
        2.30000
999
F1_CNW_LIV:F1_CNW_LIV_FLOOR
  0
POLYLINE
  8
F1_CNW_LIV
 62
  8
 66
  1
 10
 0.0
 20
 0.0
 30
        0.00000
 70
   9
 40
 0.55
 41
 0.55
  0
VERTEX
  8
F1_CNW_LIV
 10
        7.41000
 20
       10.25000
 30
        0.00000
  0
VERTEX
  8
F1_CNW_LIV
 10
        7.41000
 20
        6.65000
 30
        0.00000
  0
VERTEX
  8
F1_CNW_LIV
 10
        0.00000
 20
        6.65000
 30
        0.00000
  0
VERTEX
  8
F1_CNW_LIV
 10
        0.00000
 20
        8.50000
 30
        0.00000
  0
VERTEX
  8
F1_CNW_LIV
 10
        1.95000
 20
        8.50000
 30
        0.00000
  0
VERTEX
  8
F1_CNW_LIV
 10
        1.95000
 20
       10.25000
 30
        0.00000
  0
SEQEND
  8
F1_CNW_LIV
999
F1_CNW_LIV:F1_CNW_LIV_ROOF
  0
POLYLINE
  8
F1_CNW_LIV
 62
 15
 66
  1
 10
 0.0
 20
 0.0
 30
        2.60000
 70
   9
 40
 0.55
 41
 0.55
  0
VERTEX
  8
F1_CNW_LIV
 10
        0.00000
 20
        8.50000
 30
        2.60000
  0
VERTEX
  8
F1_CNW_LIV
 10
        0.00000
 20
        6.65000
 30
        2.60000
  0
VERTEX
  8
F1_CNW_LIV
 10
        7.41000
 20
        6.65000
 30
        2.60000
  0
VERTEX
  8
F1_CNW_LIV
 10
        7.41000
 20
       10.25000
 30
        2.60000
  0
VERTEX
  8
F1_CNW_LIV
 10
        1.95000
 20
       10.25000
 30
        2.60000
  0
VERTEX
  8
F1_CNW_LIV
 10
        1.95000
 20
        8.50000
 30
        2.60000
  0
SEQEND
  8
F1_CNW_LIV
999
F1_CORE:F1_CORE_WALL1_EXT
  0
3DFACE
  8
F1_CORE
 62
 43
 10
        7.41000
 20
        3.05000
 30
        2.60000
 11
        7.41000
 21
        3.05000
 31
        0.00000
 12
        9.81000
 22
        3.05000
 32
        0.00000
 13
        9.81000
 23
        3.05000
 33
        2.60000
999
F1_CORE:F1_CORE_WALL3_EXT
  0
3DFACE
  8
F1_CORE
 62
 43
 10
        9.81000
 20
       10.25000
 30
        2.60000
 11
        9.81000
 21
       10.25000
 31
        0.00000
 12
        7.41000
 22
       10.25000
 32
        0.00000
 13
        7.41000
 23
       10.25000
 33
        2.60000
999
F1_CORE:F1_CORE_WALL21_INT
  0
3DFACE
  8
F1_CORE
 62
 43
 10
        9.81000
 20
        3.05000
 30
        2.60000
 11
        9.81000
 21
        3.05000
 31
        0.00000
 12
        9.81000
 22
        6.65000
 32
        0.00000
 13
        9.81000
 23
        6.65000
 33
        2.60000
999
F1_CORE:F1_CORE_DOOR21
  0
3DFACE
  8
F1_CORE
 62
 45
 10
        9.81000
 20
        3.35000
 30
        2.10000
 11
        9.81000
 21
        3.35000
 31
        0.00000
 12
        9.81000
 22
        4.15000
 32
        0.00000
 13
        9.81000
 23
        4.15000
 33
        2.10000
999
F1_CORE:F1_CORE_WALL22_INT
  0
3DFACE
  8
F1_CORE
 62
 43
 10
        9.81000
 20
        6.65000
 30
        2.60000
 11
        9.81000
 21
        6.65000
 31
        0.00000
 12
        9.81000
 22
       10.25000
 32
        0.00000
 13
        9.81000
 23
       10.25000
 33
        2.60000
999
F1_CORE:F1_CORE_DOOR22
  0
3DFACE
  8
F1_CORE
 62
 45
 10
        9.81000
 20
        9.15000
 30
        2.10000
 11
        9.81000
 21
        9.15000
 31
        0.00000
 12
        9.81000
 22
        9.95000
 32
        0.00000
 13
        9.81000
 23
        9.95000
 33
        2.10000
999
F1_CORE:F1_CORE_WALL41_INT
  0
3DFACE
  8
F1_CORE
 62
 43
 10
        7.41000
 20
       10.25000
 30
        2.60000
 11
        7.41000
 21
       10.25000
 31
        0.00000
 12
        7.41000
 22
        6.65000
 32
        0.00000
 13
        7.41000
 23
        6.65000
 33
        2.60000
999
F1_CORE:F1_CORE_DOOR41
  0
3DFACE
  8
F1_CORE
 62
 45
 10
        7.41000
 20
        9.95000
 30
        2.10000
 11
        7.41000
 21
        9.95000
 31
        0.00000
 12
        7.41000
 22
        9.15000
 32
        0.00000
 13
        7.41000
 23
        9.15000
 33
        2.10000
999
F1_CORE:F1_CORE_WALL42_INT
  0
3DFACE
  8
F1_CORE
 62
 43
 10
        7.41000
 20
        6.65000
 30
        2.60000
 11
        7.41000
 21
        6.65000
 31
        0.00000
 12
        7.41000
 22
        3.05000
 32
        0.00000
 13
        7.41000
 23
        3.05000
 33
        2.60000
999
F1_CORE:F1_CORE_DOOR42
  0
3DFACE
  8
F1_CORE
 62
 45
 10
        7.41000
 20
        4.15000
 30
        2.10000
 11
        7.41000
 21
        4.15000
 31
        0.00000
 12
        7.41000
 22
        3.35000
 32
        0.00000
 13
        7.41000
 23
        3.35000
 33
        2.10000
999
F1_CORE:F1_CORE_FLOOR
  0
3DFACE
  8
F1_CORE
 62
  8
 10
        9.81000
 20
       10.25000
 30
        0.00000
 11
        9.81000
 21
        3.05000
 31
        0.00000
 12
        7.41000
 22
        3.05000
 32
        0.00000
 13
        7.41000
 23
       10.25000
 33
        0.00000
999
F1_CORE:F1_CORE_ROOF
  0
3DFACE
  8
F1_CORE
 62
 15
 10
        7.41000
 20
       10.25000
 30
        2.60000
 11
        7.41000
 21
        3.05000
 31
        2.60000
 12
        9.81000
 22
        3.05000
 32
        2.60000
 13
        9.81000
 23
       10.25000
 33
        2.60000
999
F1_CSE_BWC:F1_CSE_BWC_WALL1_INT
  0
3DFACE
  8
F1_CSE_BWC
 62
 43
 10
       15.27000
 20
        3.05000
 30
        2.60000
 11
       15.27000
 21
        3.05000
 31
        0.00000
 12
       17.22000
 22
        3.05000
 32
        0.00000
 13
       17.22000
 23
        3.05000
 33
        2.60000
999
F1_CSE_BWC:F1_CSE_BWC_WALL2_EXT
  0
3DFACE
  8
F1_CSE_BWC
 62
 43
 10
       17.22000
 20
        3.05000
 30
        2.60000
 11
       17.22000
 21
        3.05000
 31
        0.00000
 12
       17.22000
 22
        4.80000
 32
        0.00000
 13
       17.22000
 23
        4.80000
 33
        2.60000
999
F1_CSE_BWC:F1_CSE_BWC_WINDOW2
  0
3DFACE
  8
F1_CSE_BWC
 62
143
 10
       17.22000
 20
        4.00000
 30
        2.10000
 11
       17.22000
 21
        4.00000
 31
        1.50000
 12
       17.22000
 22
        4.60000
 32
        1.50000
 13
       17.22000
 23
        4.60000
 33
        2.10000
999
F1_CSE_BWC:F1_CSE_BWC_WALL3_INT
  0
3DFACE
  8
F1_CSE_BWC
 62
 43
 10
       17.22000
 20
        4.80000
 30
        2.60000
 11
       17.22000
 21
        4.80000
 31
        0.00000
 12
       15.27000
 22
        4.80000
 32
        0.00000
 13
       15.27000
 23
        4.80000
 33
        2.60000
999
F1_CSE_BWC:F1_CSE_BWC_WALL4_INT
  0
3DFACE
  8
F1_CSE_BWC
 62
 43
 10
       15.27000
 20
        4.80000
 30
        2.60000
 11
       15.27000
 21
        4.80000
 31
        0.00000
 12
       15.27000
 22
        3.05000
 32
        0.00000
 13
       15.27000
 23
        3.05000
 33
        2.60000
999
F1_CSE_BWC:F1_CSE_BWC_DOOR4
  0
3DFACE
  8
F1_CSE_BWC
 62
 45
 10
       15.27000
 20
        4.00000
 30
        2.10000
 11
       15.27000
 21
        4.00000
 31
        0.00000
 12
       15.27000
 22
        3.20000
 32
        0.00000
 13
       15.27000
 23
        3.20000
 33
        2.10000
999
F1_CSE_BWC:F1_CSE_BWC_FLOOR
  0
3DFACE
  8
F1_CSE_BWC
 62
  8
 10
       17.22000
 20
        4.80000
 30
        0.00000
 11
       17.22000
 21
        3.05000
 31
        0.00000
 12
       15.27000
 22
        3.05000
 32
        0.00000
 13
       15.27000
 23
        4.80000
 33
        0.00000
999
F1_CSE_BWC:F1_CSE_BWC_ROOF
  0
3DFACE
  8
F1_CSE_BWC
 62
 15
 10
       15.27000
 20
        4.80000
 30
        2.60000
 11
       15.27000
 21
        3.05000
 31
        2.60000
 12
       17.22000
 22
        3.05000
 32
        2.60000
 13
       17.22000
 23
        4.80000
 33
        2.60000
999
F1_CSE_DORM1:F1_CSE_DORM1_WALL1_EXT
  0
3DFACE
  8
F1_CSE_DORM1
 62
 43
 10
       14.27000
 20
        0.00000
 30
        2.60000
 11
       14.27000
 21
        0.00000
 31
        0.00000
 12
       17.22000
 22
        0.00000
 32
        0.00000
 13
       17.22000
 23
        0.00000
 33
        2.60000
999
F1_CSE_DORM1:F1_CSE_DORM1_WINDOW1
  0
3DFACE
  8
F1_CSE_DORM1
 62
143
 10
       15.14500
 20
        0.00000
 30
        2.30000
 11
       15.14500
 21
        0.00000
 31
        1.10000
 12
       16.34500
 22
        0.00000
 32
        1.10000
 13
       16.34500
 23
        0.00000
 33
        2.30000
999
F1_CSE_DORM1:F1_CSE_DORM1_WALL2_EXT
  0
3DFACE
  8
F1_CSE_DORM1
 62
 43
 10
       17.22000
 20
        0.00000
 30
        2.60000
 11
       17.22000
 21
        0.00000
 31
        0.00000
 12
       17.22000
 22
        3.05000
 32
        0.00000
 13
       17.22000
 23
        3.05000
 33
        2.60000
999
F1_CSE_DORM1:F1_CSE_DORM1_WALL4_INT
  0
3DFACE
  8
F1_CSE_DORM1
 62
 43
 10
       14.27000
 20
        3.05000
 30
        2.60000
 11
       14.27000
 21
        3.05000
 31
        0.00000
 12
       14.27000
 22
        0.00000
 32
        0.00000
 13
       14.27000
 23
        0.00000
 33
        2.60000
999
F1_CSE_DORM1:F1_CSE_DORM1_WALL31_INT
  0
3DFACE
  8
F1_CSE_DORM1
 62
 43
 10
       17.22000
 20
        3.05000
 30
        2.60000
 11
       17.22000
 21
        3.05000
 31
        0.00000
 12
       15.27000
 22
        3.05000
 32
        0.00000
 13
       15.27000
 23
        3.05000
 33
        2.60000
999
F1_CSE_DORM1:F1_CSE_DORM1_WALL32_INT
  0
3DFACE
  8
F1_CSE_DORM1
 62
 43
 10
       15.27000
 20
        3.05000
 30
        2.60000
 11
       15.27000
 21
        3.05000
 31
        0.00000
 12
       14.27000
 22
        3.05000
 32
        0.00000
 13
       14.27000
 23
        3.05000
 33
        2.60000
999
F1_CSE_DORM1:F1_CSE_DORM1_DOOR3
  0
3DFACE
  8
F1_CSE_DORM1
 62
 45
 10
       15.17000
 20
        3.05000
 30
        2.10000
 11
       15.17000
 21
        3.05000
 31
        0.00000
 12
       14.37000
 22
        3.05000
 32
        0.00000
 13
       14.37000
 23
        3.05000
 33
        2.10000
999
F1_CSE_DORM1:F1_CSE_DORM1_FLOOR
  0
3DFACE
  8
F1_CSE_DORM1
 62
  8
 10
       17.22000
 20
        3.05000
 30
        0.00000
 11
       17.22000
 21
        0.00000
 31
        0.00000
 12
       14.27000
 22
        0.00000
 32
        0.00000
 13
       14.27000
 23
        3.05000
 33
        0.00000
999
F1_CSE_DORM1:F1_CSE_DORM1_ROOF
  0
3DFACE
  8
F1_CSE_DORM1
 62
 15
 10
       14.27000
 20
        3.05000
 30
        2.60000
 11
       14.27000
 21
        0.00000
 31
        2.60000
 12
       17.22000
 22
        0.00000
 32
        2.60000
 13
       17.22000
 23
        3.05000
 33
        2.60000
999
F1_CSE_DORM2:F1_CSE_DORM2_WALL1_EXT
  0
3DFACE
  8
F1_CSE_DORM2
 62
 43
 10
       11.46000
 20
        0.00000
 30
        2.60000
 11
       11.46000
 21
        0.00000
 31
        0.00000
 12
       14.27000
 22
        0.00000
 32
        0.00000
 13
       14.27000
 23
        0.00000
 33
        2.60000
999
F1_CSE_DORM2:F1_CSE_DORM2_WINDOW1
  0
3DFACE
  8
F1_CSE_DORM2
 62
143
 10
       12.26500
 20
        0.00000
 30
        2.30000
 11
       12.26500
 21
        0.00000
 31
        1.10000
 12
       13.46500
 22
        0.00000
 32
        1.10000
 13
       13.46500
 23
        0.00000
 33
        2.30000
999
F1_CSE_DORM2:F1_CSE_DORM2_WALL2_INT
  0
3DFACE
  8
F1_CSE_DORM2
 62
 43
 10
       14.27000
 20
        0.00000
 30
        2.60000
 11
       14.27000
 21
        0.00000
 31
        0.00000
 12
       14.27000
 22
        3.05000
 32
        0.00000
 13
       14.27000
 23
        3.05000
 33
        2.60000
999
F1_CSE_DORM2:F1_CSE_DORM2_WALL3_INT
  0
3DFACE
  8
F1_CSE_DORM2
 62
 43
 10
       14.27000
 20
        3.05000
 30
        2.60000
 11
       14.27000
 21
        3.05000
 31
        0.00000
 12
       11.46000
 22
        3.05000
 32
        0.00000
 13
       11.46000
 23
        3.05000
 33
        2.60000
999
F1_CSE_DORM2:F1_CSE_DORM2_DOOR3
  0
3DFACE
  8
F1_CSE_DORM2
 62
 45
 10
       14.17000
 20
        3.05000
 30
        2.10000
 11
       14.17000
 21
        3.05000
 31
        0.00000
 12
       13.37000
 22
        3.05000
 32
        0.00000
 13
       13.37000
 23
        3.05000
 33
        2.10000
999
F1_CSE_DORM2:F1_CSE_DORM2_WALL4_EXT
  0
3DFACE
  8
F1_CSE_DORM2
 62
 43
 10
       11.46000
 20
        3.05000
 30
        2.60000
 11
       11.46000
 21
        3.05000
 31
        0.00000
 12
       11.46000
 22
        0.00000
 32
        0.00000
 13
       11.46000
 23
        0.00000
 33
        2.60000
999
F1_CSE_DORM2:F1_CSE_DORM2_FLOOR
  0
3DFACE
  8
F1_CSE_DORM2
 62
  8
 10
       14.27000
 20
        3.05000
 30
        0.00000
 11
       14.27000
 21
        0.00000
 31
        0.00000
 12
       11.46000
 22
        0.00000
 32
        0.00000
 13
       11.46000
 23
        3.05000
 33
        0.00000
999
F1_CSE_DORM2:F1_CSE_DORM2_ROOF
  0
3DFACE
  8
F1_CSE_DORM2
 62
 15
 10
       11.46000
 20
        3.05000
 30
        2.60000
 11
       11.46000
 21
        0.00000
 31
        2.60000
 12
       14.27000
 22
        0.00000
 32
        2.60000
 13
       14.27000
 23
        3.05000
 33
        2.60000
999
F1_CSE_LIV:F1_CSE_LIV_WALL3_INT
  0
3DFACE
  8
F1_CSE_LIV
 62
 43
 10
       17.22000
 20
        6.65000
 30
        2.60000
 11
       17.22000
 21
        6.65000
 31
        0.00000
 12
        9.81000
 22
        6.65000
 32
        0.00000
 13
        9.81000
 23
        6.65000
 33
        2.60000
999
F1_CSE_LIV:F1_CSE_LIV_WALL4_INT
  0
3DFACE
  8
F1_CSE_LIV
 62
 43
 10
        9.81000
 20
        6.65000
 30
        2.60000
 11
        9.81000
 21
        6.65000
 31
        0.00000
 12
        9.81000
 22
        3.05000
 32
        0.00000
 13
        9.81000
 23
        3.05000
 33
        2.60000
999
F1_CSE_LIV:F1_CSE_LIV_DOOR4
  0
3DFACE
  8
F1_CSE_LIV
 62
 45
 10
        9.81000
 20
        4.15000
 30
        2.10000
 11
        9.81000
 21
        4.15000
 31
        0.00000
 12
        9.81000
 22
        3.35000
 32
        0.00000
 13
        9.81000
 23
        3.35000
 33
        2.10000
999
F1_CSE_LIV:F1_CSE_LIV_WALL11_EXT
  0
3DFACE
  8
F1_CSE_LIV
 62
 43
 10
        9.81000
 20
        3.05000
 30
        2.60000
 11
        9.81000
 21
        3.05000
 31
        0.00000
 12
       11.46000
 22
        3.05000
 32
        0.00000
 13
       11.46000
 23
        3.05000
 33
        2.60000
999
F1_CSE_LIV:F1_CSE_LIV_WINDOW1
  0
3DFACE
  8
F1_CSE_LIV
 62
143
 10
       10.13500
 20
        3.05000
 30
        2.30000
 11
       10.13500
 21
        3.05000
 31
        0.70000
 12
       11.13500
 22
        3.05000
 32
        0.70000
 13
       11.13500
 23
        3.05000
 33
        2.30000
999
F1_CSE_LIV:F1_CSE_LIV_WALL12_INT
  0
3DFACE
  8
F1_CSE_LIV
 62
 43
 10
       11.46000
 20
        3.05000
 30
        2.60000
 11
       11.46000
 21
        3.05000
 31
        0.00000
 12
       14.27000
 22
        3.05000
 32
        0.00000
 13
       14.27000
 23
        3.05000
 33
        2.60000
999
F1_CSE_LIV:F1_CSE_LIV_DOOR11
  0
3DFACE
  8
F1_CSE_LIV
 62
 45
 10
       13.37000
 20
        3.05000
 30
        2.10000
 11
       13.37000
 21
        3.05000
 31
        0.00000
 12
       14.17000
 22
        3.05000
 32
        0.00000
 13
       14.17000
 23
        3.05000
 33
        2.10000
999
F1_CSE_LIV:F1_CSE_LIV_WALL13_INT
  0
3DFACE
  8
F1_CSE_LIV
 62
 43
 10
       14.27000
 20
        3.05000
 30
        2.60000
 11
       14.27000
 21
        3.05000
 31
        0.00000
 12
       15.27000
 22
        3.05000
 32
        0.00000
 13
       15.27000
 23
        3.05000
 33
        2.60000
999
F1_CSE_LIV:F1_CSE_LIV_DOOR12
  0
3DFACE
  8
F1_CSE_LIV
 62
 45
 10
       14.37000
 20
        3.05000
 30
        2.10000
 11
       14.37000
 21
        3.05000
 31
        0.00000
 12
       15.17000
 22
        3.05000
 32
        0.00000
 13
       15.17000
 23
        3.05000
 33
        2.10000
999
F1_CSE_LIV:F1_CSE_LIV_WALL14_INT
  0
3DFACE
  8
F1_CSE_LIV
 62
 43
 10
       15.27000
 20
        4.80000
 30
        2.60000
 11
       15.27000
 21
        4.80000
 31
        0.00000
 12
       17.22000
 22
        4.80000
 32
        0.00000
 13
       17.22000
 23
        4.80000
 33
        2.60000
999
F1_CSE_LIV:F1_CSE_LIV_WALL21_INT
  0
3DFACE
  8
F1_CSE_LIV
 62
 43
 10
       15.27000
 20
        3.05000
 30
        2.60000
 11
       15.27000
 21
        3.05000
 31
        0.00000
 12
       15.27000
 22
        4.80000
 32
        0.00000
 13
       15.27000
 23
        4.80000
 33
        2.60000
999
F1_CSE_LIV:F1_CSE_LIV_DOOR2
  0
3DFACE
  8
F1_CSE_LIV
 62
 45
 10
       15.27000
 20
        3.20000
 30
        2.10000
 11
       15.27000
 21
        3.20000
 31
        0.00000
 12
       15.27000
 22
        4.00000
 32
        0.00000
 13
       15.27000
 23
        4.00000
 33
        2.10000
999
F1_CSE_LIV:F1_CSE_LIV_WALL22_EXT
  0
3DFACE
  8
F1_CSE_LIV
 62
 43
 10
       17.22000
 20
        4.80000
 30
        2.60000
 11
       17.22000
 21
        4.80000
 31
        0.00000
 12
       17.22000
 22
        6.65000
 32
        0.00000
 13
       17.22000
 23
        6.65000
 33
        2.60000
999
F1_CSE_LIV:F1_CSE_LIV_WINDOW2
  0
3DFACE
  8
F1_CSE_LIV
 62
143
 10
       17.22000
 20
        5.22500
 30
        2.30000
 11
       17.22000
 21
        5.22500
 31
        1.10000
 12
       17.22000
 22
        6.22500
 32
        1.10000
 13
       17.22000
 23
        6.22500
 33
        2.30000
999
F1_CSE_LIV:F1_CSE_LIV_FLOOR
  0
POLYLINE
  8
F1_CSE_LIV
 62
  8
 66
  1
 10
 0.0
 20
 0.0
 30
        0.00000
 70
   9
 40
 0.55
 41
 0.55
  0
VERTEX
  8
F1_CSE_LIV
 10
       17.22000
 20
        6.65000
 30
        0.00000
  0
VERTEX
  8
F1_CSE_LIV
 10
       17.22000
 20
        4.80000
 30
        0.00000
  0
VERTEX
  8
F1_CSE_LIV
 10
       15.27000
 20
        4.80000
 30
        0.00000
  0
VERTEX
  8
F1_CSE_LIV
 10
       15.27000
 20
        3.05000
 30
        0.00000
  0
VERTEX
  8
F1_CSE_LIV
 10
        9.81000
 20
        3.05000
 30
        0.00000
  0
VERTEX
  8
F1_CSE_LIV
 10
        9.81000
 20
        6.65000
 30
        0.00000
  0
SEQEND
  8
F1_CSE_LIV
999
F1_CSE_LIV:F1_CSE_LIV_ROOF
  0
POLYLINE
  8
F1_CSE_LIV
 62
 15
 66
  1
 10
 0.0
 20
 0.0
 30
        2.60000
 70
   9
 40
 0.55
 41
 0.55
  0
VERTEX
  8
F1_CSE_LIV
 10
        9.81000
 20
        6.65000
 30
        2.60000
  0
VERTEX
  8
F1_CSE_LIV
 10
        9.81000
 20
        3.05000
 30
        2.60000
  0
VERTEX
  8
F1_CSE_LIV
 10
       15.27000
 20
        3.05000
 30
        2.60000
  0
VERTEX
  8
F1_CSE_LIV
 10
       15.27000
 20
        4.80000
 30
        2.60000
  0
VERTEX
  8
F1_CSE_LIV
 10
       17.22000
 20
        4.80000
 30
        2.60000
  0
VERTEX
  8
F1_CSE_LIV
 10
       17.22000
 20
        6.65000
 30
        2.60000
  0
SEQEND
  8
F1_CSE_LIV
999
F1_CSW_BWC:F1_CSW_BWC_WALL1_INT
  0
3DFACE
  8
F1_CSW_BWC
 62
 43
 10
        0.00000
 20
        3.05000
 30
        2.60000
 11
        0.00000
 21
        3.05000
 31
        0.00000
 12
        1.95000
 22
        3.05000
 32
        0.00000
 13
        1.95000
 23
        3.05000
 33
        2.60000
999
F1_CSW_BWC:F1_CSW_BWC_WALL2_INT
  0
3DFACE
  8
F1_CSW_BWC
 62
 43
 10
        1.95000
 20
        3.05000
 30
        2.60000
 11
        1.95000
 21
        3.05000
 31
        0.00000
 12
        1.95000
 22
        4.80000
 32
        0.00000
 13
        1.95000
 23
        4.80000
 33
        2.60000
999
F1_CSW_BWC:F1_CSW_BWC_DOOR2
  0
3DFACE
  8
F1_CSW_BWC
 62
 45
 10
        1.95000
 20
        3.20000
 30
        2.10000
 11
        1.95000
 21
        3.20000
 31
        0.00000
 12
        1.95000
 22
        4.00000
 32
        0.00000
 13
        1.95000
 23
        4.00000
 33
        2.10000
999
F1_CSW_BWC:F1_CSW_BWC_WALL3_INT
  0
3DFACE
  8
F1_CSW_BWC
 62
 43
 10
        1.95000
 20
        4.80000
 30
        2.60000
 11
        1.95000
 21
        4.80000
 31
        0.00000
 12
        0.00000
 22
        4.80000
 32
        0.00000
 13
        0.00000
 23
        4.80000
 33
        2.60000
999
F1_CSW_BWC:F1_CSW_BWC_WALL4_EXT
  0
3DFACE
  8
F1_CSW_BWC
 62
 43
 10
        0.00000
 20
        4.80000
 30
        2.60000
 11
        0.00000
 21
        4.80000
 31
        0.00000
 12
        0.00000
 22
        3.05000
 32
        0.00000
 13
        0.00000
 23
        3.05000
 33
        2.60000
999
F1_CSW_BWC:F1_CSW_BWC_WINDOW4
  0
3DFACE
  8
F1_CSW_BWC
 62
143
 10
        0.00000
 20
        4.60000
 30
        2.10000
 11
        0.00000
 21
        4.60000
 31
        1.50000
 12
        0.00000
 22
        4.00000
 32
        1.50000
 13
        0.00000
 23
        4.00000
 33
        2.10000
999
F1_CSW_BWC:F1_CSW_BWC_FLOOR
  0
3DFACE
  8
F1_CSW_BWC
 62
  8
 10
        1.95000
 20
        4.80000
 30
        0.00000
 11
        1.95000
 21
        3.05000
 31
        0.00000
 12
        0.00000
 22
        3.05000
 32
        0.00000
 13
        0.00000
 23
        4.80000
 33
        0.00000
999
F1_CSW_BWC:F1_CSW_BWC_ROOF
  0
3DFACE
  8
F1_CSW_BWC
 62
 15
 10
        0.00000
 20
        4.80000
 30
        2.60000
 11
        0.00000
 21
        3.05000
 31
        2.60000
 12
        1.95000
 22
        3.05000
 32
        2.60000
 13
        1.95000
 23
        4.80000
 33
        2.60000
999
F1_CSW_DORM1:F1_CSW_DORM1_WALL1_EXT
  0
3DFACE
  8
F1_CSW_DORM1
 62
 43
 10
        0.00000
 20
        0.00000
 30
        2.60000
 11
        0.00000
 21
        0.00000
 31
        0.00000
 12
        2.95000
 22
        0.00000
 32
        0.00000
 13
        2.95000
 23
        0.00000
 33
        2.60000
999
F1_CSW_DORM1:F1_CSW_DORM1_WINDOW1
  0
3DFACE
  8
F1_CSW_DORM1
 62
143
 10
        0.87500
 20
        0.00000
 30
        2.30000
 11
        0.87500
 21
        0.00000
 31
        1.10000
 12
        2.07500
 22
        0.00000
 32
        1.10000
 13
        2.07500
 23
        0.00000
 33
        2.30000
999
F1_CSW_DORM1:F1_CSW_DORM1_WALL2_INT
  0
3DFACE
  8
F1_CSW_DORM1
 62
 43
 10
        2.95000
 20
        0.00000
 30
        2.60000
 11
        2.95000
 21
        0.00000
 31
        0.00000
 12
        2.95000
 22
        3.05000
 32
        0.00000
 13
        2.95000
 23
        3.05000
 33
        2.60000
999
F1_CSW_DORM1:F1_CSW_DORM1_WALL4_EXT
  0
3DFACE
  8
F1_CSW_DORM1
 62
 43
 10
        0.00000
 20
        3.05000
 30
        2.60000
 11
        0.00000
 21
        3.05000
 31
        0.00000
 12
        0.00000
 22
        0.00000
 32
        0.00000
 13
        0.00000
 23
        0.00000
 33
        2.60000
999
F1_CSW_DORM1:F1_CSW_DORM1_WALL31_INT
  0
3DFACE
  8
F1_CSW_DORM1
 62
 43
 10
        2.95000
 20
        3.05000
 30
        2.60000
 11
        2.95000
 21
        3.05000
 31
        0.00000
 12
        1.95000
 22
        3.05000
 32
        0.00000
 13
        1.95000
 23
        3.05000
 33
        2.60000
999
F1_CSW_DORM1:F1_CSW_DORM1_DOOR3
  0
3DFACE
  8
F1_CSW_DORM1
 62
 45
 10
        2.85000
 20
        3.05000
 30
        2.10000
 11
        2.85000
 21
        3.05000
 31
        0.00000
 12
        2.05000
 22
        3.05000
 32
        0.00000
 13
        2.05000
 23
        3.05000
 33
        2.10000
999
F1_CSW_DORM1:F1_CSW_DORM1_WALL32_INT
  0
3DFACE
  8
F1_CSW_DORM1
 62
 43
 10
        1.95000
 20
        3.05000
 30
        2.60000
 11
        1.95000
 21
        3.05000
 31
        0.00000
 12
        0.00000
 22
        3.05000
 32
        0.00000
 13
        0.00000
 23
        3.05000
 33
        2.60000
999
F1_CSW_DORM1:F1_CSW_DORM1_FLOOR
  0
3DFACE
  8
F1_CSW_DORM1
 62
  8
 10
        2.95000
 20
        3.05000
 30
        0.00000
 11
        2.95000
 21
        0.00000
 31
        0.00000
 12
        0.00000
 22
        0.00000
 32
        0.00000
 13
        0.00000
 23
        3.05000
 33
        0.00000
999
F1_CSW_DORM1:F1_CSW_DORM1_ROOF
  0
3DFACE
  8
F1_CSW_DORM1
 62
 15
 10
        0.00000
 20
        3.05000
 30
        2.60000
 11
        0.00000
 21
        0.00000
 31
        2.60000
 12
        2.95000
 22
        0.00000
 32
        2.60000
 13
        2.95000
 23
        3.05000
 33
        2.60000
999
F1_CSW_DORM2:F1_CSW_DORM2_WALL1_EXT
  0
3DFACE
  8
F1_CSW_DORM2
 62
 43
 10
        2.95000
 20
        0.00000
 30
        2.60000
 11
        2.95000
 21
        0.00000
 31
        0.00000
 12
        5.76000
 22
        0.00000
 32
        0.00000
 13
        5.76000
 23
        0.00000
 33
        2.60000
999
F1_CSW_DORM2:F1_CSW_DORM2_WINDOW1
  0
3DFACE
  8
F1_CSW_DORM2
 62
143
 10
        3.75500
 20
        0.00000
 30
        2.30000
 11
        3.75500
 21
        0.00000
 31
        1.10000
 12
        4.95500
 22
        0.00000
 32
        1.10000
 13
        4.95500
 23
        0.00000
 33
        2.30000
999
F1_CSW_DORM2:F1_CSW_DORM2_WALL2_EXT
  0
3DFACE
  8
F1_CSW_DORM2
 62
 43
 10
        5.76000
 20
        0.00000
 30
        2.60000
 11
        5.76000
 21
        0.00000
 31
        0.00000
 12
        5.76000
 22
        3.05000
 32
        0.00000
 13
        5.76000
 23
        3.05000
 33
        2.60000
999
F1_CSW_DORM2:F1_CSW_DORM2_WALL3_INT
  0
3DFACE
  8
F1_CSW_DORM2
 62
 43
 10
        5.76000
 20
        3.05000
 30
        2.60000
 11
        5.76000
 21
        3.05000
 31
        0.00000
 12
        2.95000
 22
        3.05000
 32
        0.00000
 13
        2.95000
 23
        3.05000
 33
        2.60000
999
F1_CSW_DORM2:F1_CSW_DORM2_DOOR3
  0
3DFACE
  8
F1_CSW_DORM2
 62
 45
 10
        3.85000
 20
        3.05000
 30
        2.10000
 11
        3.85000
 21
        3.05000
 31
        0.00000
 12
        3.05000
 22
        3.05000
 32
        0.00000
 13
        3.05000
 23
        3.05000
 33
        2.10000
999
F1_CSW_DORM2:F1_CSW_DORM2_WALL4_INT
  0
3DFACE
  8
F1_CSW_DORM2
 62
 43
 10
        2.95000
 20
        3.05000
 30
        2.60000
 11
        2.95000
 21
        3.05000
 31
        0.00000
 12
        2.95000
 22
        0.00000
 32
        0.00000
 13
        2.95000
 23
        0.00000
 33
        2.60000
999
F1_CSW_DORM2:F1_CSW_DORM2_FLOOR
  0
3DFACE
  8
F1_CSW_DORM2
 62
  8
 10
        5.76000
 20
        3.05000
 30
        0.00000
 11
        5.76000
 21
        0.00000
 31
        0.00000
 12
        2.95000
 22
        0.00000
 32
        0.00000
 13
        2.95000
 23
        3.05000
 33
        0.00000
999
F1_CSW_DORM2:F1_CSW_DORM2_ROOF
  0
3DFACE
  8
F1_CSW_DORM2
 62
 15
 10
        2.95000
 20
        3.05000
 30
        2.60000
 11
        2.95000
 21
        0.00000
 31
        2.60000
 12
        5.76000
 22
        0.00000
 32
        2.60000
 13
        5.76000
 23
        3.05000
 33
        2.60000
999
F1_CSW_LIV:F1_CSW_LIV_WALL2_INT
  0
3DFACE
  8
F1_CSW_LIV
 62
 43
 10
        7.41000
 20
        3.05000
 30
        2.60000
 11
        7.41000
 21
        3.05000
 31
        0.00000
 12
        7.41000
 22
        6.65000
 32
        0.00000
 13
        7.41000
 23
        6.65000
 33
        2.60000
999
F1_CSW_LIV:F1_CSW_LIV_DOOR2
  0
3DFACE
  8
F1_CSW_LIV
 62
 45
 10
        7.41000
 20
        3.35000
 30
        2.10000
 11
        7.41000
 21
        3.35000
 31
        0.00000
 12
        7.41000
 22
        4.15000
 32
        0.00000
 13
        7.41000
 23
        4.15000
 33
        2.10000
999
F1_CSW_LIV:F1_CSW_LIV_WALL3_INT
  0
3DFACE
  8
F1_CSW_LIV
 62
 43
 10
        7.41000
 20
        6.65000
 30
        2.60000
 11
        7.41000
 21
        6.65000
 31
        0.00000
 12
        0.00000
 22
        6.65000
 32
        0.00000
 13
        0.00000
 23
        6.65000
 33
        2.60000
999
F1_CSW_LIV:F1_CSW_LIV_WALL11_INT
  0
3DFACE
  8
F1_CSW_LIV
 62
 43
 10
        0.00000
 20
        4.80000
 30
        2.60000
 11
        0.00000
 21
        4.80000
 31
        0.00000
 12
        1.95000
 22
        4.80000
 32
        0.00000
 13
        1.95000
 23
        4.80000
 33
        2.60000
999
F1_CSW_LIV:F1_CSW_LIV_WALL12_INT
  0
3DFACE
  8
F1_CSW_LIV
 62
 43
 10
        1.95000
 20
        3.05000
 30
        2.60000
 11
        1.95000
 21
        3.05000
 31
        0.00000
 12
        2.95000
 22
        3.05000
 32
        0.00000
 13
        2.95000
 23
        3.05000
 33
        2.60000
999
F1_CSW_LIV:F1_CSW_LIV_DOOR11
  0
3DFACE
  8
F1_CSW_LIV
 62
 45
 10
        2.05000
 20
        3.05000
 30
        2.10000
 11
        2.05000
 21
        3.05000
 31
        0.00000
 12
        2.85000
 22
        3.05000
 32
        0.00000
 13
        2.85000
 23
        3.05000
 33
        2.10000
999
F1_CSW_LIV:F1_CSW_LIV_WALL13_INT
  0
3DFACE
  8
F1_CSW_LIV
 62
 43
 10
        2.95000
 20
        3.05000
 30
        2.60000
 11
        2.95000
 21
        3.05000
 31
        0.00000
 12
        5.76000
 22
        3.05000
 32
        0.00000
 13
        5.76000
 23
        3.05000
 33
        2.60000
999
F1_CSW_LIV:F1_CSW_LIV_DOOR12
  0
3DFACE
  8
F1_CSW_LIV
 62
 45
 10
        3.05000
 20
        3.05000
 30
        2.10000
 11
        3.05000
 21
        3.05000
 31
        0.00000
 12
        3.85000
 22
        3.05000
 32
        0.00000
 13
        3.85000
 23
        3.05000
 33
        2.10000
999
F1_CSW_LIV:F1_CSW_LIV_WALL14_EXT
  0
3DFACE
  8
F1_CSW_LIV
 62
 43
 10
        5.76000
 20
        3.05000
 30
        2.60000
 11
        5.76000
 21
        3.05000
 31
        0.00000
 12
        7.41000
 22
        3.05000
 32
        0.00000
 13
        7.41000
 23
        3.05000
 33
        2.60000
999
F1_CSW_LIV:F1_CSW_LIV_WINDOW1
  0
3DFACE
  8
F1_CSW_LIV
 62
143
 10
        6.08500
 20
        3.05000
 30
        2.30000
 11
        6.08500
 21
        3.05000
 31
        0.70000
 12
        7.08500
 22
        3.05000
 32
        0.70000
 13
        7.08500
 23
        3.05000
 33
        2.30000
999
F1_CSW_LIV:F1_CSW_LIV_WALL41_INT
  0
3DFACE
  8
F1_CSW_LIV
 62
 43
 10
        1.95000
 20
        4.80000
 30
        2.60000
 11
        1.95000
 21
        4.80000
 31
        0.00000
 12
        1.95000
 22
        3.05000
 32
        0.00000
 13
        1.95000
 23
        3.05000
 33
        2.60000
999
F1_CSW_LIV:F1_CSW_LIV_DOOR4
  0
3DFACE
  8
F1_CSW_LIV
 62
 45
 10
        1.95000
 20
        4.00000
 30
        2.10000
 11
        1.95000
 21
        4.00000
 31
        0.00000
 12
        1.95000
 22
        3.20000
 32
        0.00000
 13
        1.95000
 23
        3.20000
 33
        2.10000
999
F1_CSW_LIV:F1_CSW_LIV_WALL42_EXT
  0
3DFACE
  8
F1_CSW_LIV
 62
 43
 10
        0.00000
 20
        6.65000
 30
        2.60000
 11
        0.00000
 21
        6.65000
 31
        0.00000
 12
        0.00000
 22
        4.80000
 32
        0.00000
 13
        0.00000
 23
        4.80000
 33
        2.60000
999
F1_CSW_LIV:F1_CSW_LIV_WINDOW4
  0
3DFACE
  8
F1_CSW_LIV
 62
143
 10
        0.00000
 20
        6.22500
 30
        2.30000
 11
        0.00000
 21
        6.22500
 31
        1.10000
 12
        0.00000
 22
        5.22500
 32
        1.10000
 13
        0.00000
 23
        5.22500
 33
        2.30000
999
F1_CSW_LIV:F1_CSW_LIV_FLOOR
  0
POLYLINE
  8
F1_CSW_LIV
 62
  8
 66
  1
 10
 0.0
 20
 0.0
 30
        0.00000
 70
   9
 40
 0.55
 41
 0.55
  0
VERTEX
  8
F1_CSW_LIV
 10
        7.41000
 20
        6.65000
 30
        0.00000
  0
VERTEX
  8
F1_CSW_LIV
 10
        7.41000
 20
        3.05000
 30
        0.00000
  0
VERTEX
  8
F1_CSW_LIV
 10
        1.95000
 20
        3.05000
 30
        0.00000
  0
VERTEX
  8
F1_CSW_LIV
 10
        1.95000
 20
        4.80000
 30
        0.00000
  0
VERTEX
  8
F1_CSW_LIV
 10
        0.00000
 20
        4.80000
 30
        0.00000
  0
VERTEX
  8
F1_CSW_LIV
 10
        0.00000
 20
        6.65000
 30
        0.00000
  0
SEQEND
  8
F1_CSW_LIV
999
F1_CSW_LIV:F1_CSW_LIV_ROOF
  0
POLYLINE
  8
F1_CSW_LIV
 62
 15
 66
  1
 10
 0.0
 20
 0.0
 30
        2.60000
 70
   9
 40
 0.55
 41
 0.55
  0
VERTEX
  8
F1_CSW_LIV
 10
        0.00000
 20
        6.65000
 30
        2.60000
  0
VERTEX
  8
F1_CSW_LIV
 10
        0.00000
 20
        4.80000
 30
        2.60000
  0
VERTEX
  8
F1_CSW_LIV
 10
        1.95000
 20
        4.80000
 30
        2.60000
  0
VERTEX
  8
F1_CSW_LIV
 10
        1.95000
 20
        3.05000
 30
        2.60000
  0
VERTEX
  8
F1_CSW_LIV
 10
        7.41000
 20
        3.05000
 30
        2.60000
  0
VERTEX
  8
F1_CSW_LIV
 10
        7.41000
 20
        6.65000
 30
        2.60000
  0
SEQEND
  8
F1_CSW_LIV
999
F2_CNE_BWC:F2_CNE_BWC_WALL1_INT
  0
3DFACE
  8
F2_CNE_BWC
 62
 43
 10
       15.27000
 20
        8.50000
 30
        5.20000
 11
       15.27000
 21
        8.50000
 31
        2.60000
 12
       17.22000
 22
        8.50000
 32
        2.60000
 13
       17.22000
 23
        8.50000
 33
        5.20000
999
F2_CNE_BWC:F2_CNE_BWC_WALL2_EXT
  0
3DFACE
  8
F2_CNE_BWC
 62
 43
 10
       17.22000
 20
        8.50000
 30
        5.20000
 11
       17.22000
 21
        8.50000
 31
        2.60000
 12
       17.22000
 22
       10.25000
 32
        2.60000
 13
       17.22000
 23
       10.25000
 33
        5.20000
999
F2_CNE_BWC:F2_CNE_BWC_WINDOW2
  0
3DFACE
  8
F2_CNE_BWC
 62
143
 10
       17.22000
 20
        8.70000
 30
        4.70000
 11
       17.22000
 21
        8.70000
 31
        4.10000
 12
       17.22000
 22
        9.30000
 32
        4.10000
 13
       17.22000
 23
        9.30000
 33
        4.70000
999
F2_CNE_BWC:F2_CNE_BWC_WALL3_INT
  0
3DFACE
  8
F2_CNE_BWC
 62
 43
 10
       17.22000
 20
       10.25000
 30
        5.20000
 11
       17.22000
 21
       10.25000
 31
        2.60000
 12
       15.27000
 22
       10.25000
 32
        2.60000
 13
       15.27000
 23
       10.25000
 33
        5.20000
999
F2_CNE_BWC:F2_CNE_BWC_WALL4_INT
  0
3DFACE
  8
F2_CNE_BWC
 62
 43
 10
       15.27000
 20
       10.25000
 30
        5.20000
 11
       15.27000
 21
       10.25000
 31
        2.60000
 12
       15.27000
 22
        8.50000
 32
        2.60000
 13
       15.27000
 23
        8.50000
 33
        5.20000
999
F2_CNE_BWC:F2_CNE_BWC_DOOR4
  0
3DFACE
  8
F2_CNE_BWC
 62
 45
 10
       15.27000
 20
       10.10000
 30
        4.70000
 11
       15.27000
 21
       10.10000
 31
        2.60000
 12
       15.27000
 22
        9.30000
 32
        2.60000
 13
       15.27000
 23
        9.30000
 33
        4.70000
999
F2_CNE_BWC:F2_CNE_BWC_FLOOR
  0
3DFACE
  8
F2_CNE_BWC
 62
  8
 10
       17.22000
 20
       10.25000
 30
        2.60000
 11
       17.22000
 21
        8.50000
 31
        2.60000
 12
       15.27000
 22
        8.50000
 32
        2.60000
 13
       15.27000
 23
       10.25000
 33
        2.60000
999
F2_CNE_BWC:F2_CNE_BWC_ROOF
  0
3DFACE
  8
F2_CNE_BWC
 62
 15
 10
       15.27000
 20
       10.25000
 30
        5.20000
 11
       15.27000
 21
        8.50000
 31
        5.20000
 12
       17.22000
 22
        8.50000
 32
        5.20000
 13
       17.22000
 23
       10.25000
 33
        5.20000
999
F2_CNE_DORM1:F2_CNE_DORM1_WALL2_EXT
  0
3DFACE
  8
F2_CNE_DORM1
 62
 43
 10
       17.22000
 20
       10.25000
 30
        5.20000
 11
       17.22000
 21
       10.25000
 31
        2.60000
 12
       17.22000
 22
       13.30000
 32
        2.60000
 13
       17.22000
 23
       13.30000
 33
        5.20000
999
F2_CNE_DORM1:F2_CNE_DORM1_WALL3_EXT
  0
3DFACE
  8
F2_CNE_DORM1
 62
 43
 10
       17.22000
 20
       13.30000
 30
        5.20000
 11
       17.22000
 21
       13.30000
 31
        2.60000
 12
       14.27000
 22
       13.30000
 32
        2.60000
 13
       14.27000
 23
       13.30000
 33
        5.20000
999
F2_CNE_DORM1:F2_CNE_DORM1_WINDOW3
  0
3DFACE
  8
F2_CNE_DORM1
 62
143
 10
       16.34500
 20
       13.30000
 30
        4.90000
 11
       16.34500
 21
       13.30000
 31
        3.70000
 12
       15.14500
 22
       13.30000
 32
        3.70000
 13
       15.14500
 23
       13.30000
 33
        4.90000
999
F2_CNE_DORM1:F2_CNE_DORM1_WALL4_INT
  0
3DFACE
  8
F2_CNE_DORM1
 62
 43
 10
       14.27000
 20
       13.30000
 30
        5.20000
 11
       14.27000
 21
       13.30000
 31
        2.60000
 12
       14.27000
 22
       10.25000
 32
        2.60000
 13
       14.27000
 23
       10.25000
 33
        5.20000
999
F2_CNE_DORM1:F2_CNE_DORM1_WALL11_INT
  0
3DFACE
  8
F2_CNE_DORM1
 62
 43
 10
       14.27000
 20
       10.25000
 30
        5.20000
 11
       14.27000
 21
       10.25000
 31
        2.60000
 12
       15.27000
 22
       10.25000
 32
        2.60000
 13
       15.27000
 23
       10.25000
 33
        5.20000
999
F2_CNE_DORM1:F2_CNE_DORM1_DOOR1
  0
3DFACE
  8
F2_CNE_DORM1
 62
 45
 10
       14.37000
 20
       10.25000
 30
        4.70000
 11
       14.37000
 21
       10.25000
 31
        2.60000
 12
       15.17000
 22
       10.25000
 32
        2.60000
 13
       15.17000
 23
       10.25000
 33
        4.70000
999
F2_CNE_DORM1:F2_CNE_DORM1_WALL12_INT
  0
3DFACE
  8
F2_CNE_DORM1
 62
 43
 10
       15.27000
 20
       10.25000
 30
        5.20000
 11
       15.27000
 21
       10.25000
 31
        2.60000
 12
       17.22000
 22
       10.25000
 32
        2.60000
 13
       17.22000
 23
       10.25000
 33
        5.20000
999
F2_CNE_DORM1:F2_CNE_DORM1_FLOOR
  0
3DFACE
  8
F2_CNE_DORM1
 62
  8
 10
       17.22000
 20
       13.30000
 30
        2.60000
 11
       17.22000
 21
       10.25000
 31
        2.60000
 12
       14.27000
 22
       10.25000
 32
        2.60000
 13
       14.27000
 23
       13.30000
 33
        2.60000
999
F2_CNE_DORM1:F2_CNE_DORM1_ROOF
  0
3DFACE
  8
F2_CNE_DORM1
 62
 15
 10
       14.27000
 20
       13.30000
 30
        5.20000
 11
       14.27000
 21
       10.25000
 31
        5.20000
 12
       17.22000
 22
       10.25000
 32
        5.20000
 13
       17.22000
 23
       13.30000
 33
        5.20000
999
F2_CNE_DORM2:F2_CNE_DORM2_WALL1_INT
  0
3DFACE
  8
F2_CNE_DORM2
 62
 43
 10
       11.46000
 20
       10.25000
 30
        5.20000
 11
       11.46000
 21
       10.25000
 31
        2.60000
 12
       14.27000
 22
       10.25000
 32
        2.60000
 13
       14.27000
 23
       10.25000
 33
        5.20000
999
F2_CNE_DORM2:F2_CNE_DORM2_DOOR1
  0
3DFACE
  8
F2_CNE_DORM2
 62
 45
 10
       13.37000
 20
       10.25000
 30
        4.70000
 11
       13.37000
 21
       10.25000
 31
        2.60000
 12
       14.17000
 22
       10.25000
 32
        2.60000
 13
       14.17000
 23
       10.25000
 33
        4.70000
999
F2_CNE_DORM2:F2_CNE_DORM2_WALL2_INT
  0
3DFACE
  8
F2_CNE_DORM2
 62
 43
 10
       14.27000
 20
       10.25000
 30
        5.20000
 11
       14.27000
 21
       10.25000
 31
        2.60000
 12
       14.27000
 22
       13.30000
 32
        2.60000
 13
       14.27000
 23
       13.30000
 33
        5.20000
999
F2_CNE_DORM2:F2_CNE_DORM2_WALL3_EXT
  0
3DFACE
  8
F2_CNE_DORM2
 62
 43
 10
       14.27000
 20
       13.30000
 30
        5.20000
 11
       14.27000
 21
       13.30000
 31
        2.60000
 12
       11.46000
 22
       13.30000
 32
        2.60000
 13
       11.46000
 23
       13.30000
 33
        5.20000
999
F2_CNE_DORM2:F2_CNE_DORM2_WINDOW3
  0
3DFACE
  8
F2_CNE_DORM2
 62
143
 10
       13.46500
 20
       13.30000
 30
        4.90000
 11
       13.46500
 21
       13.30000
 31
        3.70000
 12
       12.26500
 22
       13.30000
 32
        3.70000
 13
       12.26500
 23
       13.30000
 33
        4.90000
999
F2_CNE_DORM2:F2_CNE_DORM2_WALL4_EXT
  0
3DFACE
  8
F2_CNE_DORM2
 62
 43
 10
       11.46000
 20
       13.30000
 30
        5.20000
 11
       11.46000
 21
       13.30000
 31
        2.60000
 12
       11.46000
 22
       10.25000
 32
        2.60000
 13
       11.46000
 23
       10.25000
 33
        5.20000
999
F2_CNE_DORM2:F2_CNE_DORM2_FLOOR
  0
3DFACE
  8
F2_CNE_DORM2
 62
  8
 10
       14.27000
 20
       13.30000
 30
        2.60000
 11
       14.27000
 21
       10.25000
 31
        2.60000
 12
       11.46000
 22
       10.25000
 32
        2.60000
 13
       11.46000
 23
       13.30000
 33
        2.60000
999
F2_CNE_DORM2:F2_CNE_DORM2_ROOF
  0
3DFACE
  8
F2_CNE_DORM2
 62
 15
 10
       11.46000
 20
       13.30000
 30
        5.20000
 11
       11.46000
 21
       10.25000
 31
        5.20000
 12
       14.27000
 22
       10.25000
 32
        5.20000
 13
       14.27000
 23
       13.30000
 33
        5.20000
999
F2_CNE_LIV:F2_CNE_LIV_WALL1_INT
  0
3DFACE
  8
F2_CNE_LIV
 62
 43
 10
        9.81000
 20
        6.65000
 30
        5.20000
 11
        9.81000
 21
        6.65000
 31
        2.60000
 12
       17.22000
 22
        6.65000
 32
        2.60000
 13
       17.22000
 23
        6.65000
 33
        5.20000
999
F2_CNE_LIV:F2_CNE_LIV_WALL4_INT
  0
3DFACE
  8
F2_CNE_LIV
 62
 43
 10
        9.81000
 20
       10.25000
 30
        5.20000
 11
        9.81000
 21
       10.25000
 31
        2.60000
 12
        9.81000
 22
        6.65000
 32
        2.60000
 13
        9.81000
 23
        6.65000
 33
        5.20000
999
F2_CNE_LIV:F2_CNE_LIV_DOOR4
  0
3DFACE
  8
F2_CNE_LIV
 62
 45
 10
        9.81000
 20
        9.95000
 30
        4.70000
 11
        9.81000
 21
        9.95000
 31
        2.60000
 12
        9.81000
 22
        9.15000
 32
        2.60000
 13
        9.81000
 23
        9.15000
 33
        4.70000
999
F2_CNE_LIV:F2_CNE_LIV_WALL21_EXT
  0
3DFACE
  8
F2_CNE_LIV
 62
 43
 10
       17.22000
 20
        6.65000
 30
        5.20000
 11
       17.22000
 21
        6.65000
 31
        2.60000
 12
       17.22000
 22
        8.50000
 32
        2.60000
 13
       17.22000
 23
        8.50000
 33
        5.20000
999
F2_CNE_LIV:F2_CNE_LIV_WINDOW2
  0
3DFACE
  8
F2_CNE_LIV
 62
143
 10
       17.22000
 20
        7.07500
 30
        4.90000
 11
       17.22000
 21
        7.07500
 31
        3.70000
 12
       17.22000
 22
        8.07500
 32
        3.70000
 13
       17.22000
 23
        8.07500
 33
        4.90000
999
F2_CNE_LIV:F2_CNE_LIV_WALL22_INT
  0
3DFACE
  8
F2_CNE_LIV
 62
 43
 10
       15.27000
 20
        8.50000
 30
        5.20000
 11
       15.27000
 21
        8.50000
 31
        2.60000
 12
       15.27000
 22
       10.25000
 32
        2.60000
 13
       15.27000
 23
       10.25000
 33
        5.20000
999
F2_CNE_LIV:F2_CNE_LIV_DOOR2
  0
3DFACE
  8
F2_CNE_LIV
 62
 45
 10
       15.27000
 20
        9.30000
 30
        4.70000
 11
       15.27000
 21
        9.30000
 31
        2.60000
 12
       15.27000
 22
       10.10000
 32
        2.60000
 13
       15.27000
 23
       10.10000
 33
        4.70000
999
F2_CNE_LIV:F2_CNE_LIV_WALL31_INT
  0
3DFACE
  8
F2_CNE_LIV
 62
 43
 10
       17.22000
 20
        8.50000
 30
        5.20000
 11
       17.22000
 21
        8.50000
 31
        2.60000
 12
       15.27000
 22
        8.50000
 32
        2.60000
 13
       15.27000
 23
        8.50000
 33
        5.20000
999
F2_CNE_LIV:F2_CNE_LIV_WALL32_INT
  0
3DFACE
  8
F2_CNE_LIV
 62
 43
 10
       15.27000
 20
       10.25000
 30
        5.20000
 11
       15.27000
 21
       10.25000
 31
        2.60000
 12
       14.27000
 22
       10.25000
 32
        2.60000
 13
       14.27000
 23
       10.25000
 33
        5.20000
999
F2_CNE_LIV:F2_CNE_LIV_DOOR31
  0
3DFACE
  8
F2_CNE_LIV
 62
 45
 10
       15.17000
 20
       10.25000
 30
        4.70000
 11
       15.17000
 21
       10.25000
 31
        2.60000
 12
       14.37000
 22
       10.25000
 32
        2.60000
 13
       14.37000
 23
       10.25000
 33
        4.70000
999
F2_CNE_LIV:F2_CNE_LIV_WALL33_INT
  0
3DFACE
  8
F2_CNE_LIV
 62
 43
 10
       14.27000
 20
       10.25000
 30
        5.20000
 11
       14.27000
 21
       10.25000
 31
        2.60000
 12
       11.46000
 22
       10.25000
 32
        2.60000
 13
       11.46000
 23
       10.25000
 33
        5.20000
999
F2_CNE_LIV:F2_CNE_LIV_DOOR32
  0
3DFACE
  8
F2_CNE_LIV
 62
 45
 10
       14.17000
 20
       10.25000
 30
        4.70000
 11
       14.17000
 21
       10.25000
 31
        2.60000
 12
       13.37000
 22
       10.25000
 32
        2.60000
 13
       13.37000
 23
       10.25000
 33
        4.70000
999
F2_CNE_LIV:F2_CNE_LIV_WALL34_EXT
  0
3DFACE
  8
F2_CNE_LIV
 62
 43
 10
       11.46000
 20
       10.25000
 30
        5.20000
 11
       11.46000
 21
       10.25000
 31
        2.60000
 12
        9.81000
 22
       10.25000
 32
        2.60000
 13
        9.81000
 23
       10.25000
 33
        5.20000
999
F2_CNE_LIV:F2_CNE_LIV_WINDOW3
  0
3DFACE
  8
F2_CNE_LIV
 62
143
 10
       11.13500
 20
       10.25000
 30
        4.90000
 11
       11.13500
 21
       10.25000
 31
        3.30000
 12
       10.13500
 22
       10.25000
 32
        3.30000
 13
       10.13500
 23
       10.25000
 33
        4.90000
999
F2_CNE_LIV:F2_CNE_LIV_FLOOR
  0
POLYLINE
  8
F2_CNE_LIV
 62
  8
 66
  1
 10
 0.0
 20
 0.0
 30
        2.60000
 70
   9
 40
 0.55
 41
 0.55
  0
VERTEX
  8
F2_CNE_LIV
 10
       17.22000
 20
        8.50000
 30
        2.60000
  0
VERTEX
  8
F2_CNE_LIV
 10
       17.22000
 20
        6.65000
 30
        2.60000
  0
VERTEX
  8
F2_CNE_LIV
 10
        9.81000
 20
        6.65000
 30
        2.60000
  0
VERTEX
  8
F2_CNE_LIV
 10
        9.81000
 20
       10.25000
 30
        2.60000
  0
VERTEX
  8
F2_CNE_LIV
 10
       15.27000
 20
       10.25000
 30
        2.60000
  0
VERTEX
  8
F2_CNE_LIV
 10
       15.27000
 20
        8.50000
 30
        2.60000
  0
SEQEND
  8
F2_CNE_LIV
999
F2_CNE_LIV:F2_CNE_LIV_ROOF
  0
POLYLINE
  8
F2_CNE_LIV
 62
 15
 66
  1
 10
 0.0
 20
 0.0
 30
        5.20000
 70
   9
 40
 0.55
 41
 0.55
  0
VERTEX
  8
F2_CNE_LIV
 10
        9.81000
 20
       10.25000
 30
        5.20000
  0
VERTEX
  8
F2_CNE_LIV
 10
        9.81000
 20
        6.65000
 30
        5.20000
  0
VERTEX
  8
F2_CNE_LIV
 10
       17.22000
 20
        6.65000
 30
        5.20000
  0
VERTEX
  8
F2_CNE_LIV
 10
       17.22000
 20
        8.50000
 30
        5.20000
  0
VERTEX
  8
F2_CNE_LIV
 10
       15.27000
 20
        8.50000
 30
        5.20000
  0
VERTEX
  8
F2_CNE_LIV
 10
       15.27000
 20
       10.25000
 30
        5.20000
  0
SEQEND
  8
F2_CNE_LIV
999
F2_CNW_BWC:F2_CNW_BWC_WALL1_INT
  0
3DFACE
  8
F2_CNW_BWC
 62
 43
 10
        0.00000
 20
        8.50000
 30
        5.20000
 11
        0.00000
 21
        8.50000
 31
        2.60000
 12
        1.95000
 22
        8.50000
 32
        2.60000
 13
        1.95000
 23
        8.50000
 33
        5.20000
999
F2_CNW_BWC:F2_CNW_BWC_WALL2_INT
  0
3DFACE
  8
F2_CNW_BWC
 62
 43
 10
        1.95000
 20
        8.50000
 30
        5.20000
 11
        1.95000
 21
        8.50000
 31
        2.60000
 12
        1.95000
 22
       10.25000
 32
        2.60000
 13
        1.95000
 23
       10.25000
 33
        5.20000
999
F2_CNW_BWC:F2_CNW_BWC_DOOR2
  0
3DFACE
  8
F2_CNW_BWC
 62
 45
 10
        1.95000
 20
        9.30000
 30
        4.70000
 11
        1.95000
 21
        9.30000
 31
        2.60000
 12
        1.95000
 22
       10.10000
 32
        2.60000
 13
        1.95000
 23
       10.10000
 33
        4.70000
999
F2_CNW_BWC:F2_CNW_BWC_WALL3_INT
  0
3DFACE
  8
F2_CNW_BWC
 62
 43
 10
        1.95000
 20
       10.25000
 30
        5.20000
 11
        1.95000
 21
       10.25000
 31
        2.60000
 12
        0.00000
 22
       10.25000
 32
        2.60000
 13
        0.00000
 23
       10.25000
 33
        5.20000
999
F2_CNW_BWC:F2_CNW_BWC_WALL4_EXT
  0
3DFACE
  8
F2_CNW_BWC
 62
 43
 10
        0.00000
 20
       10.25000
 30
        5.20000
 11
        0.00000
 21
       10.25000
 31
        2.60000
 12
        0.00000
 22
        8.50000
 32
        2.60000
 13
        0.00000
 23
        8.50000
 33
        5.20000
999
F2_CNW_BWC:F2_CNW_BWC_WINDOW4
  0
3DFACE
  8
F2_CNW_BWC
 62
143
 10
        0.00000
 20
        9.30000
 30
        4.70000
 11
        0.00000
 21
        9.30000
 31
        4.10000
 12
        0.00000
 22
        8.70000
 32
        4.10000
 13
        0.00000
 23
        8.70000
 33
        4.70000
999
F2_CNW_BWC:F2_CNW_BWC_FLOOR
  0
3DFACE
  8
F2_CNW_BWC
 62
  8
 10
        1.95000
 20
       10.25000
 30
        2.60000
 11
        1.95000
 21
        8.50000
 31
        2.60000
 12
        0.00000
 22
        8.50000
 32
        2.60000
 13
        0.00000
 23
       10.25000
 33
        2.60000
999
F2_CNW_BWC:F2_CNW_BWC_ROOF
  0
3DFACE
  8
F2_CNW_BWC
 62
 15
 10
        0.00000
 20
       10.25000
 30
        5.20000
 11
        0.00000
 21
        8.50000
 31
        5.20000
 12
        1.95000
 22
        8.50000
 32
        5.20000
 13
        1.95000
 23
       10.25000
 33
        5.20000
999
F2_CNW_DORM1:F2_CNW_DORM1_WALL2_INT
  0
3DFACE
  8
F2_CNW_DORM1
 62
 43
 10
        2.95000
 20
       10.25000
 30
        5.20000
 11
        2.95000
 21
       10.25000
 31
        2.60000
 12
        2.95000
 22
       13.30000
 32
        2.60000
 13
        2.95000
 23
       13.30000
 33
        5.20000
999
F2_CNW_DORM1:F2_CNW_DORM1_WALL3_EXT
  0
3DFACE
  8
F2_CNW_DORM1
 62
 43
 10
        2.95000
 20
       13.30000
 30
        5.20000
 11
        2.95000
 21
       13.30000
 31
        2.60000
 12
        0.00000
 22
       13.30000
 32
        2.60000
 13
        0.00000
 23
       13.30000
 33
        5.20000
999
F2_CNW_DORM1:F2_CNW_DORM1_WINDOW3
  0
3DFACE
  8
F2_CNW_DORM1
 62
143
 10
        2.07500
 20
       13.30000
 30
        4.90000
 11
        2.07500
 21
       13.30000
 31
        3.70000
 12
        0.87500
 22
       13.30000
 32
        3.70000
 13
        0.87500
 23
       13.30000
 33
        4.90000
999
F2_CNW_DORM1:F2_CNW_DORM1_WALL4_EXT
  0
3DFACE
  8
F2_CNW_DORM1
 62
 43
 10
        0.00000
 20
       13.30000
 30
        5.20000
 11
        0.00000
 21
       13.30000
 31
        2.60000
 12
        0.00000
 22
       10.25000
 32
        2.60000
 13
        0.00000
 23
       10.25000
 33
        5.20000
999
F2_CNW_DORM1:F2_CNW_DORM1_WALL11_INT
  0
3DFACE
  8
F2_CNW_DORM1
 62
 43
 10
        0.00000
 20
       10.25000
 30
        5.20000
 11
        0.00000
 21
       10.25000
 31
        2.60000
 12
        1.95000
 22
       10.25000
 32
        2.60000
 13
        1.95000
 23
       10.25000
 33
        5.20000
999
F2_CNW_DORM1:F2_CNW_DORM1_WALL12_INT
  0
3DFACE
  8
F2_CNW_DORM1
 62
 43
 10
        1.95000
 20
       10.25000
 30
        5.20000
 11
        1.95000
 21
       10.25000
 31
        2.60000
 12
        2.95000
 22
       10.25000
 32
        2.60000
 13
        2.95000
 23
       10.25000
 33
        5.20000
999
F2_CNW_DORM1:F2_CNW_DORM1_DOOR1
  0
3DFACE
  8
F2_CNW_DORM1
 62
 45
 10
        2.05000
 20
       10.25000
 30
        4.70000
 11
        2.05000
 21
       10.25000
 31
[...]
 31
       10.40000
 12
       11.46000
 22
        0.00000
 32
       10.40000
 13
       11.46000
 23
        0.00000
 33
       13.00000
999
F5_CSE_DORM2:F5_CSE_DORM2_FLOOR
  0
3DFACE
  8
F5_CSE_DORM2
 62
  8
 10
       14.27000
 20
        3.05000
 30
       10.40000
 11
       14.27000
 21
        0.00000
 31
       10.40000
 12
       11.46000
 22
        0.00000
 32
       10.40000
 13
       11.46000
 23
        3.05000
 33
       10.40000
999
F5_CSE_DORM2:F5_CSE_DORM2_ROOF
  0
3DFACE
  8
F5_CSE_DORM2
 62
 15
 10
       11.46000
 20
        3.05000
 30
       13.00000
 11
       11.46000
 21
        0.00000
 31
       13.00000
 12
       14.27000
 22
        0.00000
 32
       13.00000
 13
       14.27000
 23
        3.05000
 33
       13.00000
999
F5_CSE_LIV:F5_CSE_LIV_WALL3_INT
  0
3DFACE
  8
F5_CSE_LIV
 62
 43
 10
       17.22000
 20
        6.65000
 30
       13.00000
 11
       17.22000
 21
        6.65000
 31
       10.40000
 12
        9.81000
 22
        6.65000
 32
       10.40000
 13
        9.81000
 23
        6.65000
 33
       13.00000
999
F5_CSE_LIV:F5_CSE_LIV_WALL4_INT
  0
3DFACE
  8
F5_CSE_LIV
 62
 43
 10
        9.81000
 20
        6.65000
 30
       13.00000
 11
        9.81000
 21
        6.65000
 31
       10.40000
 12
        9.81000
 22
        3.05000
 32
       10.40000
 13
        9.81000
 23
        3.05000
 33
       13.00000
999
F5_CSE_LIV:F5_CSE_LIV_DOOR4
  0
3DFACE
  8
F5_CSE_LIV
 62
 45
 10
        9.81000
 20
        4.15000
 30
       12.50000
 11
        9.81000
 21
        4.15000
 31
       10.40000
 12
        9.81000
 22
        3.35000
 32
       10.40000
 13
        9.81000
 23
        3.35000
 33
       12.50000
999
F5_CSE_LIV:F5_CSE_LIV_WALL11_EXT
  0
3DFACE
  8
F5_CSE_LIV
 62
 43
 10
        9.81000
 20
        3.05000
 30
       13.00000
 11
        9.81000
 21
        3.05000
 31
       10.40000
 12
       11.46000
 22
        3.05000
 32
       10.40000
 13
       11.46000
 23
        3.05000
 33
       13.00000
999
F5_CSE_LIV:F5_CSE_LIV_WINDOW1
  0
3DFACE
  8
F5_CSE_LIV
 62
143
 10
       10.13500
 20
        3.05000
 30
       12.70000
 11
       10.13500
 21
        3.05000
 31
       11.10000
 12
       11.13500
 22
        3.05000
 32
       11.10000
 13
       11.13500
 23
        3.05000
 33
       12.70000
999
F5_CSE_LIV:F5_CSE_LIV_WALL12_INT
  0
3DFACE
  8
F5_CSE_LIV
 62
 43
 10
       11.46000
 20
        3.05000
 30
       13.00000
 11
       11.46000
 21
        3.05000
 31
       10.40000
 12
       14.27000
 22
        3.05000
 32
       10.40000
 13
       14.27000
 23
        3.05000
 33
       13.00000
999
F5_CSE_LIV:F5_CSE_LIV_DOOR11
  0
3DFACE
  8
F5_CSE_LIV
 62
 45
 10
       13.37000
 20
        3.05000
 30
       12.50000
 11
       13.37000
 21
        3.05000
 31
       10.40000
 12
       14.17000
 22
        3.05000
 32
       10.40000
 13
       14.17000
 23
        3.05000
 33
       12.50000
999
F5_CSE_LIV:F5_CSE_LIV_WALL13_INT
  0
3DFACE
  8
F5_CSE_LIV
 62
 43
 10
       14.27000
 20
        3.05000
 30
       13.00000
 11
       14.27000
 21
        3.05000
 31
       10.40000
 12
       15.27000
 22
        3.05000
 32
       10.40000
 13
       15.27000
 23
        3.05000
 33
       13.00000
999
F5_CSE_LIV:F5_CSE_LIV_DOOR12
  0
3DFACE
  8
F5_CSE_LIV
 62
 45
 10
       14.37000
 20
        3.05000
 30
       12.50000
 11
       14.37000
 21
        3.05000
 31
       10.40000
 12
       15.17000
 22
        3.05000
 32
       10.40000
 13
       15.17000
 23
        3.05000
 33
       12.50000
999
F5_CSE_LIV:F5_CSE_LIV_WALL14_INT
  0
3DFACE
  8
F5_CSE_LIV
 62
 43
 10
       15.27000
 20
        4.80000
 30
       13.00000
 11
       15.27000
 21
        4.80000
 31
       10.40000
 12
       17.22000
 22
        4.80000
 32
       10.40000
 13
       17.22000
 23
        4.80000
 33
       13.00000
999
F5_CSE_LIV:F5_CSE_LIV_WALL21_INT
  0
3DFACE
  8
F5_CSE_LIV
 62
 43
 10
       15.27000
 20
        3.05000
 30
       13.00000
 11
       15.27000
 21
        3.05000
 31
       10.40000
 12
       15.27000
 22
        4.80000
 32
       10.40000
 13
       15.27000
 23
        4.80000
 33
       13.00000
999
F5_CSE_LIV:F5_CSE_LIV_DOOR2
  0
3DFACE
  8
F5_CSE_LIV
 62
 45
 10
       15.27000
 20
        3.20000
 30
       12.50000
 11
       15.27000
 21
        3.20000
 31
       10.40000
 12
       15.27000
 22
        4.00000
 32
       10.40000
 13
       15.27000
 23
        4.00000
 33
       12.50000
999
F5_CSE_LIV:F5_CSE_LIV_WALL22_EXT
  0
3DFACE
  8
F5_CSE_LIV
 62
 43
 10
       17.22000
 20
        4.80000
 30
       13.00000
 11
       17.22000
 21
        4.80000
 31
       10.40000
 12
       17.22000
 22
        6.65000
 32
       10.40000
 13
       17.22000
 23
        6.65000
 33
       13.00000
999
F5_CSE_LIV:F5_CSE_LIV_WINDOW2
  0
3DFACE
  8
F5_CSE_LIV
 62
143
 10
       17.22000
 20
        5.22500
 30
       12.70000
 11
       17.22000
 21
        5.22500
 31
       11.50000
 12
       17.22000
 22
        6.22500
 32
       11.50000
 13
       17.22000
 23
        6.22500
 33
       12.70000
999
F5_CSE_LIV:F5_CSE_LIV_FLOOR
  0
POLYLINE
  8
F5_CSE_LIV
 62
  8
 66
  1
 10
 0.0
 20
 0.0
 30
       10.40000
 70
   9
 40
 0.55
 41
 0.55
  0
VERTEX
  8
F5_CSE_LIV
 10
       17.22000
 20
        6.65000
 30
       10.40000
  0
VERTEX
  8
F5_CSE_LIV
 10
       17.22000
 20
        4.80000
 30
       10.40000
  0
VERTEX
  8
F5_CSE_LIV
 10
       15.27000
 20
        4.80000
 30
       10.40000
  0
VERTEX
  8
F5_CSE_LIV
 10
       15.27000
 20
        3.05000
 30
       10.40000
  0
VERTEX
  8
F5_CSE_LIV
 10
        9.81000
 20
        3.05000
 30
       10.40000
  0
VERTEX
  8
F5_CSE_LIV
 10
        9.81000
 20
        6.65000
 30
       10.40000
  0
SEQEND
  8
F5_CSE_LIV
999
F5_CSE_LIV:F5_CSE_LIV_ROOF
  0
POLYLINE
  8
F5_CSE_LIV
 62
 15
 66
  1
 10
 0.0
 20
 0.0
 30
       13.00000
 70
   9
 40
 0.55
 41
 0.55
  0
VERTEX
  8
F5_CSE_LIV
 10
        9.81000
 20
        6.65000
 30
       13.00000
  0
VERTEX
  8
F5_CSE_LIV
 10
        9.81000
 20
        3.05000
 30
       13.00000
  0
VERTEX
  8
F5_CSE_LIV
 10
       15.27000
 20
        3.05000
 30
       13.00000
  0
VERTEX
  8
F5_CSE_LIV
 10
       15.27000
 20
        4.80000
 30
       13.00000
  0
VERTEX
  8
F5_CSE_LIV
 10
       17.22000
 20
        4.80000
 30
       13.00000
  0
VERTEX
  8
F5_CSE_LIV
 10
       17.22000
 20
        6.65000
 30
       13.00000
  0
SEQEND
  8
F5_CSE_LIV
999
F5_CSW_BWC:F5_CSW_BWC_WALL1_INT
  0
3DFACE
  8
F5_CSW_BWC
 62
 43
 10
        0.00000
 20
        3.05000
 30
       13.00000
 11
        0.00000
 21
        3.05000
 31
       10.40000
 12
        1.95000
 22
        3.05000
 32
       10.40000
 13
        1.95000
 23
        3.05000
 33
       13.00000
999
F5_CSW_BWC:F5_CSW_BWC_WALL2_INT
  0
3DFACE
  8
F5_CSW_BWC
 62
 43
 10
        1.95000
 20
        3.05000
 30
       13.00000
 11
        1.95000
 21
        3.05000
 31
       10.40000
 12
        1.95000
 22
        4.80000
 32
       10.40000
 13
        1.95000
 23
        4.80000
 33
       13.00000
999
F5_CSW_BWC:F5_CSW_BWC_DOOR2
  0
3DFACE
  8
F5_CSW_BWC
 62
 45
 10
        1.95000
 20
        3.20000
 30
       12.50000
 11
        1.95000
 21
        3.20000
 31
       10.40000
 12
        1.95000
 22
        4.00000
 32
       10.40000
 13
        1.95000
 23
        4.00000
 33
       12.50000
999
F5_CSW_BWC:F5_CSW_BWC_WALL3_INT
  0
3DFACE
  8
F5_CSW_BWC
 62
 43
 10
        1.95000
 20
        4.80000
 30
       13.00000
 11
        1.95000
 21
        4.80000
 31
       10.40000
 12
        0.00000
 22
        4.80000
 32
       10.40000
 13
        0.00000
 23
        4.80000
 33
       13.00000
999
F5_CSW_BWC:F5_CSW_BWC_WALL4_EXT
  0
3DFACE
  8
F5_CSW_BWC
 62
 43
 10
        0.00000
 20
        4.80000
 30
       13.00000
 11
        0.00000
 21
        4.80000
 31
       10.40000
 12
        0.00000
 22
        3.05000
 32
       10.40000
 13
        0.00000
 23
        3.05000
 33
       13.00000
999
F5_CSW_BWC:F5_CSW_BWC_WINDOW4
  0
3DFACE
  8
F5_CSW_BWC
 62
143
 10
        0.00000
 20
        4.60000
 30
       12.50000
 11
        0.00000
 21
        4.60000
 31
       11.90000
 12
        0.00000
 22
        4.00000
 32
       11.90000
 13
        0.00000
 23
        4.00000
 33
       12.50000
999
F5_CSW_BWC:F5_CSW_BWC_FLOOR
  0
3DFACE
  8
F5_CSW_BWC
 62
  8
 10
        1.95000
 20
        4.80000
 30
       10.40000
 11
        1.95000
 21
        3.05000
 31
       10.40000
 12
        0.00000
 22
        3.05000
 32
       10.40000
 13
        0.00000
 23
        4.80000
 33
       10.40000
999
F5_CSW_BWC:F5_CSW_BWC_ROOF
  0
3DFACE
  8
F5_CSW_BWC
 62
 15
 10
        0.00000
 20
        4.80000
 30
       13.00000
 11
        0.00000
 21
        3.05000
 31
       13.00000
 12
        1.95000
 22
        3.05000
 32
       13.00000
 13
        1.95000
 23
        4.80000
 33
       13.00000
999
F5_CSW_DORM1:F5_CSW_DORM1_WALL1_EXT
  0
3DFACE
  8
F5_CSW_DORM1
 62
 43
 10
        0.00000
 20
        0.00000
 30
       13.00000
 11
        0.00000
 21
        0.00000
 31
       10.40000
 12
        2.95000
 22
        0.00000
 32
       10.40000
 13
        2.95000
 23
        0.00000
 33
       13.00000
999
F5_CSW_DORM1:F5_CSW_DORM1_WINDOW1
  0
3DFACE
  8
F5_CSW_DORM1
 62
143
 10
        0.87500
 20
        0.00000
 30
       12.70000
 11
        0.87500
 21
        0.00000
 31
       11.50000
 12
        2.07500
 22
        0.00000
 32
       11.50000
 13
        2.07500
 23
        0.00000
 33
       12.70000
999
F5_CSW_DORM1:F5_CSW_DORM1_WALL2_INT
  0
3DFACE
  8
F5_CSW_DORM1
 62
 43
 10
        2.95000
 20
        0.00000
 30
       13.00000
 11
        2.95000
 21
        0.00000
 31
       10.40000
 12
        2.95000
 22
        3.05000
 32
       10.40000
 13
        2.95000
 23
        3.05000
 33
       13.00000
999
F5_CSW_DORM1:F5_CSW_DORM1_WALL4_EXT
  0
3DFACE
  8
F5_CSW_DORM1
 62
 43
 10
        0.00000
 20
        3.05000
 30
       13.00000
 11
        0.00000
 21
        3.05000
 31
       10.40000
 12
        0.00000
 22
        0.00000
 32
       10.40000
 13
        0.00000
 23
        0.00000
 33
       13.00000
999
F5_CSW_DORM1:F5_CSW_DORM1_WALL31_INT
  0
3DFACE
  8
F5_CSW_DORM1
 62
 43
 10
        2.95000
 20
        3.05000
 30
       13.00000
 11
        2.95000
 21
        3.05000
 31
       10.40000
 12
        1.95000
 22
        3.05000
 32
       10.40000
 13
        1.95000
 23
        3.05000
 33
       13.00000
999
F5_CSW_DORM1:F5_CSW_DORM1_DOOR3
  0
3DFACE
  8
F5_CSW_DORM1
 62
 45
 10
        2.85000
 20
        3.05000
 30
       12.50000
 11
        2.85000
 21
        3.05000
 31
       10.40000
 12
        2.05000
 22
        3.05000
 32
       10.40000
 13
        2.05000
 23
        3.05000
 33
       12.50000
999
F5_CSW_DORM1:F5_CSW_DORM1_WALL32_INT
  0
3DFACE
  8
F5_CSW_DORM1
 62
 43
 10
        1.95000
 20
        3.05000
 30
       13.00000
 11
        1.95000
 21
        3.05000
 31
       10.40000
 12
        0.00000
 22
        3.05000
 32
       10.40000
 13
        0.00000
 23
        3.05000
 33
       13.00000
999
F5_CSW_DORM1:F5_CSW_DORM1_FLOOR
  0
3DFACE
  8
F5_CSW_DORM1
 62
  8
 10
        2.95000
 20
        3.05000
 30
       10.40000
 11
        2.95000
 21
        0.00000
 31
       10.40000
 12
        0.00000
 22
        0.00000
 32
       10.40000
 13
        0.00000
 23
        3.05000
 33
       10.40000
999
F5_CSW_DORM1:F5_CSW_DORM1_ROOF
  0
3DFACE
  8
F5_CSW_DORM1
 62
 15
 10
        0.00000
 20
        3.05000
 30
       13.00000
 11
        0.00000
 21
        0.00000
 31
       13.00000
 12
        2.95000
 22
        0.00000
 32
       13.00000
 13
        2.95000
 23
        3.05000
 33
       13.00000
999
F5_CSW_DORM2:F5_CSW_DORM2_WALL1_EXT
  0
3DFACE
  8
F5_CSW_DORM2
 62
 43
 10
        2.95000
 20
        0.00000
 30
       13.00000
 11
        2.95000
 21
        0.00000
 31
       10.40000
 12
        5.76000
 22
        0.00000
 32
       10.40000
 13
        5.76000
 23
        0.00000
 33
       13.00000
999
F5_CSW_DORM2:F5_CSW_DORM2_WINDOW1
  0
3DFACE
  8
F5_CSW_DORM2
 62
143
 10
        3.75500
 20
        0.00000
 30
       12.70000
 11
        3.75500
 21
        0.00000
 31
       11.50000
 12
        4.95500
 22
        0.00000
 32
       11.50000
 13
        4.95500
 23
        0.00000
 33
       12.70000
999
F5_CSW_DORM2:F5_CSW_DORM2_WALL2_EXT
  0
3DFACE
  8
F5_CSW_DORM2
 62
 43
 10
        5.76000
 20
        0.00000
 30
       13.00000
 11
        5.76000
 21
        0.00000
 31
       10.40000
 12
        5.76000
 22
        3.05000
 32
       10.40000
 13
        5.76000
 23
        3.05000
 33
       13.00000
999
F5_CSW_DORM2:F5_CSW_DORM2_WALL3_INT
  0
3DFACE
  8
F5_CSW_DORM2
 62
 43
 10
        5.76000
 20
        3.05000
 30
       13.00000
 11
        5.76000
 21
        3.05000
 31
       10.40000
 12
        2.95000
 22
        3.05000
 32
       10.40000
 13
        2.95000
 23
        3.05000
 33
       13.00000
999
F5_CSW_DORM2:F5_CSW_DORM2_DOOR3
  0
3DFACE
  8
F5_CSW_DORM2
 62
 45
 10
        3.85000
 20
        3.05000
 30
       12.50000
 11
        3.85000
 21
        3.05000
 31
       10.40000
 12
        3.05000
 22
        3.05000
 32
       10.40000
 13
        3.05000
 23
        3.05000
 33
       12.50000
999
F5_CSW_DORM2:F5_CSW_DORM2_WALL4_INT
  0
3DFACE
  8
F5_CSW_DORM2
 62
 43
 10
        2.95000
 20
        3.05000
 30
       13.00000
 11
        2.95000
 21
        3.05000
 31
       10.40000
 12
        2.95000
 22
        0.00000
 32
       10.40000
 13
        2.95000
 23
        0.00000
 33
       13.00000
999
F5_CSW_DORM2:F5_CSW_DORM2_FLOOR
  0
3DFACE
  8
F5_CSW_DORM2
 62
  8
 10
        5.76000
 20
        3.05000
 30
       10.40000
 11
        5.76000
 21
        0.00000
 31
       10.40000
 12
        2.95000
 22
        0.00000
 32
       10.40000
 13
        2.95000
 23
        3.05000
 33
       10.40000
999
F5_CSW_DORM2:F5_CSW_DORM2_ROOF
  0
3DFACE
  8
F5_CSW_DORM2
 62
 15
 10
        2.95000
 20
        3.05000
 30
       13.00000
 11
        2.95000
 21
        0.00000
 31
       13.00000
 12
        5.76000
 22
        0.00000
 32
       13.00000
 13
        5.76000
 23
        3.05000
 33
       13.00000
999
F5_CSW_LIV:F5_CSW_LIV_WALL2_INT
  0
3DFACE
  8
F5_CSW_LIV
 62
 43
 10
        7.41000
 20
        3.05000
 30
       13.00000
 11
        7.41000
 21
        3.05000
 31
       10.40000
 12
        7.41000
 22
        6.65000
 32
       10.40000
 13
        7.41000
 23
        6.65000
 33
       13.00000
999
F5_CSW_LIV:F5_CSW_LIV_DOOR2
  0
3DFACE
  8
F5_CSW_LIV
 62
 45
 10
        7.41000
 20
        3.35000
 30
       12.50000
 11
        7.41000
 21
        3.35000
 31
       10.40000
 12
        7.41000
 22
        4.15000
 32
       10.40000
 13
        7.41000
 23
        4.15000
 33
       12.50000
999
F5_CSW_LIV:F5_CSW_LIV_WALL3_INT
  0
3DFACE
  8
F5_CSW_LIV
 62
 43
 10
        7.41000
 20
        6.65000
 30
       13.00000
 11
        7.41000
 21
        6.65000
 31
       10.40000
 12
        0.00000
 22
        6.65000
 32
       10.40000
 13
        0.00000
 23
        6.65000
 33
       13.00000
999
F5_CSW_LIV:F5_CSW_LIV_WALL11_INT
  0
3DFACE
  8
F5_CSW_LIV
 62
 43
 10
        0.00000
 20
        4.80000
 30
       13.00000
 11
        0.00000
 21
        4.80000
 31
       10.40000
 12
        1.95000
 22
        4.80000
 32
       10.40000
 13
        1.95000
 23
        4.80000
 33
       13.00000
999
F5_CSW_LIV:F5_CSW_LIV_WALL12_INT
  0
3DFACE
  8
F5_CSW_LIV
 62
 43
 10
        1.95000
 20
        3.05000
 30
       13.00000
 11
        1.95000
 21
        3.05000
 31
       10.40000
 12
        2.95000
 22
        3.05000
 32
       10.40000
 13
        2.95000
 23
        3.05000
 33
       13.00000
999
F5_CSW_LIV:F5_CSW_LIV_DOOR11
  0
3DFACE
  8
F5_CSW_LIV
 62
 45
 10
        2.05000
 20
        3.05000
 30
       12.50000
 11
        2.05000
 21
        3.05000
 31
       10.40000
 12
        2.85000
 22
        3.05000
 32
       10.40000
 13
        2.85000
 23
        3.05000
 33
       12.50000
999
F5_CSW_LIV:F5_CSW_LIV_WALL13_INT
  0
3DFACE
  8
F5_CSW_LIV
 62
 43
 10
        2.95000
 20
        3.05000
 30
       13.00000
 11
        2.95000
 21
        3.05000
 31
       10.40000
 12
        5.76000
 22
        3.05000
 32
       10.40000
 13
        5.76000
 23
        3.05000
 33
       13.00000
999
F5_CSW_LIV:F5_CSW_LIV_DOOR12
  0
3DFACE
  8
F5_CSW_LIV
 62
 45
 10
        3.05000
 20
        3.05000
 30
       12.50000
 11
        3.05000
 21
        3.05000
 31
       10.40000
 12
        3.85000
 22
        3.05000
 32
       10.40000
 13
        3.85000
 23
        3.05000
 33
       12.50000
999
F5_CSW_LIV:F5_CSW_LIV_WALL14_EXT
  0
3DFACE
  8
F5_CSW_LIV
 62
 43
 10
        5.76000
 20
        3.05000
 30
       13.00000
 11
        5.76000
 21
        3.05000
 31
       10.40000
 12
        7.41000
 22
        3.05000
 32
       10.40000
 13
        7.41000
 23
        3.05000
 33
       13.00000
999
F5_CSW_LIV:F5_CSW_LIV_WINDOW1
  0
3DFACE
  8
F5_CSW_LIV
 62
143
 10
        6.08500
 20
        3.05000
 30
       12.70000
 11
        6.08500
 21
        3.05000
 31
       11.10000
 12
        7.08500
 22
        3.05000
 32
       11.10000
 13
        7.08500
 23
        3.05000
 33
       12.70000
999
F5_CSW_LIV:F5_CSW_LIV_WALL41_INT
  0
3DFACE
  8
F5_CSW_LIV
 62
 43
 10
        1.95000
 20
        4.80000
 30
       13.00000
 11
        1.95000
 21
        4.80000
 31
       10.40000
 12
        1.95000
 22
        3.05000
 32
       10.40000
 13
        1.95000
 23
        3.05000
 33
       13.00000
999
F5_CSW_LIV:F5_CSW_LIV_DOOR4
  0
3DFACE
  8
F5_CSW_LIV
 62
 45
 10
        1.95000
 20
        4.00000
 30
       12.50000
 11
        1.95000
 21
        4.00000
 31
       10.40000
 12
        1.95000
 22
        3.20000
 32
       10.40000
 13
        1.95000
 23
        3.20000
 33
       12.50000
999
F5_CSW_LIV:F5_CSW_LIV_WALL42_EXT
  0
3DFACE
  8
F5_CSW_LIV
 62
 43
 10
        0.00000
 20
        6.65000
 30
       13.00000
 11
        0.00000
 21
        6.65000
 31
       10.40000
 12
        0.00000
 22
        4.80000
 32
       10.40000
 13
        0.00000
 23
        4.80000
 33
       13.00000
999
F5_CSW_LIV:F5_CSW_LIV_WINDOW4
  0
3DFACE
  8
F5_CSW_LIV
 62
143
 10
        0.00000
 20
        6.22500
 30
       12.70000
 11
        0.00000
 21
        6.22500
 31
       11.50000
 12
        0.00000
 22
        5.22500
 32
       11.50000
 13
        0.00000
 23
        5.22500
 33
       12.70000
999
F5_CSW_LIV:F5_CSW_LIV_FLOOR
  0
POLYLINE
  8
F5_CSW_LIV
 62
  8
 66
  1
 10
 0.0
 20
 0.0
 30
       10.40000
 70
   9
 40
 0.55
 41
 0.55
  0
VERTEX
  8
F5_CSW_LIV
 10
        7.41000
 20
        6.65000
 30
       10.40000
  0
VERTEX
  8
F5_CSW_LIV
 10
        7.41000
 20
        3.05000
 30
       10.40000
  0
VERTEX
  8
F5_CSW_LIV
 10
        1.95000
 20
        3.05000
 30
       10.40000
  0
VERTEX
  8
F5_CSW_LIV
 10
        1.95000
 20
        4.80000
 30
       10.40000
  0
VERTEX
  8
F5_CSW_LIV
 10
        0.00000
 20
        4.80000
 30
       10.40000
  0
VERTEX
  8
F5_CSW_LIV
 10
        0.00000
 20
        6.65000
 30
       10.40000
  0
SEQEND
  8
F5_CSW_LIV
999
F5_CSW_LIV:F5_CSW_LIV_ROOF
  0
POLYLINE
  8
F5_CSW_LIV
 62
 15
 66
  1
 10
 0.0
 20
 0.0
 30
       13.00000
 70
   9
 40
 0.55
 41
 0.55
  0
VERTEX
  8
F5_CSW_LIV
 10
        0.00000
 20
        6.65000
 30
       13.00000
  0
VERTEX
  8
F5_CSW_LIV
 10
        0.00000
 20
        4.80000
 30
       13.00000
  0
VERTEX
  8
F5_CSW_LIV
 10
        1.95000
 20
        4.80000
 30
       13.00000
  0
VERTEX
  8
F5_CSW_LIV
 10
        1.95000
 20
        3.05000
 30
       13.00000
  0
VERTEX
  8
F5_CSW_LIV
 10
        7.41000
 20
        3.05000
 30
       13.00000
  0
VERTEX
  8
F5_CSW_LIV
 10
        7.41000
 20
        6.65000
 30
       13.00000
  0
SEQEND
  8
F5_CSW_LIV
  0
ENDSEC
  0
EOF
