  0
SECTION
  2
ENTITIES
999
DXF created from EnergyPlus
999
Program Version,EnergyPlus, Version 9.0.1-bb7ca4f0da, YMD=2021.02.04 15:26
999
Polygon Action,THICKPOLYLINE
999
Color Scheme,Default
999
Text - True North
  0
TEXT
  8
1
  6
Continuous
 62
  3
 10
      -11.00000
 20
        3.00000
 30
        0.10000
 40
 .25
  1
True North
 41
 0.0
  7
MONOTXT
210
0.0
220
0.0
230
1.0
999
Text - Building Title
  0
TEXT
  8
1
  6
Continuous
 62
  3
 10
      -14.00000
 20
       -1.00000
 30
        0.10000
 40
 .4
  1
Building - model
 41
 0.0
  7
MONOTXT
210
0.0
220
0.0
230
1.0
999
North Arrow Stem
  0
3DFACE
  8
1
 62
  3
 10
      -10.00000
 20
        3.00000
 30
        0.10000
 11
      -10.00000
 21
        3.00000
 31
        0.00000
 12
      -10.00000
 22
        0.00000
 32
        0.00000
 13
      -10.00000
 23
        0.00000
 33
        0.10000
999
North Arrow Head 1
  0
3DFACE
  8
1
 62
  3
 10
      -10.00000
 20
        3.00000
 30
        0.10000
 11
      -10.00000
 21
        3.00000
 31
        0.00000
 12
      -10.50000
 22
        2.13397
 32
        0.00000
 13
      -10.50000
 23
        2.13397
 33
        0.10000
999
North Arrow Head 2
  0
3DFACE
  8
1
 62
  3
 10
      -10.00000
 20
        3.00000
 30
        0.10000
 11
      -10.00000
 21
        3.00000
 31
        0.00000
 12
       -9.50000
 22
        2.13397
 32
        0.00000
 13
       -9.50000
 23
        2.13397
 33
        0.10000
999
North Arrow Side 1
  0
3DFACE
  8
1
 62
  3
 10
      -10.50000
 20
        4.50000
 30
        0.10000
 11
      -10.50000
 21
        4.50000
 31
        0.00000
 12
      -10.50000
 22
        3.50000
 32
        0.00000
 13
      -10.50000
 23
        3.50000
 33
        0.10000
999
North Arrow Side 2
  0
3DFACE
  8
1
 62
  3
 10
      -10.50000
 20
        4.50000
 30
        0.10000
 11
      -10.50000
 21
        4.50000
 31
        0.00000
 12
       -9.50000
 22
        3.50000
 32
        0.00000
 13
       -9.50000
 23
        3.50000
 33
        0.10000
999
North Arrow Side 3
  0
3DFACE
  8
1
 62
  3
 10
       -9.50000
 20
        4.50000
 30
        0.10000
 11
       -9.50000
 21
        4.50000
 31
        0.00000
 12
       -9.50000
 22
        3.50000
 32
        0.00000
 13
       -9.50000
 23
        3.50000
 33
        0.10000
999
Zone Names
999
Zone=1:F1_CNE_BWC
999
Zone=2:F1_CNE_DORM1
999
Zone=3:F1_CNE_DORM2
999
Zone=4:F1_CNE_LIV
999
Zone=5:F1_CNW_BWC
999
Zone=6:F1_CNW_DORM1
999
Zone=7:F1_CNW_DORM2
999
Zone=8:F1_CNW_LIV
999
Zone=9:F1_CORE
999
Zone=10:F1_CSE_BWC
999
Zone=11:F1_CSE_DORM1
999
Zone=12:F1_CSE_DORM2
999
Zone=13:F1_CSE_LIV
999
Zone=14:F1_CSW_BWC
999
Zone=15:F1_CSW_DORM1
999
Zone=16:F1_CSW_DORM2
999
Zone=17:F1_CSW_LIV
999
Zone=18:F1_MNE_BWC
999
Zone=19:F1_MNE_DORM1
999
Zone=20:F1_MNE_DORM2
999
Zone=21:F1_MNE_LIV
999
Zone=22:F1_MNW_BWC
999
Zone=23:F1_MNW_DORM1
999
Zone=24:F1_MNW_DORM2
999
Zone=25:F1_MNW_LIV
999
Zone=26:F1_MSE_BWC1
999
Zone=27:F1_MSE_BWC2
999
Zone=28:F1_MSE_DORM1
999
Zone=29:F1_MSE_DORM2
999
Zone=30:F1_MSE_LIV
999
Zone=31:F1_MSW_BWC1
999
Zone=32:F1_MSW_BWC2
999
Zone=33:F1_MSW_DORM1
999
Zone=34:F1_MSW_DORM2
999
Zone=35:F1_MSW_LIV
999
Zone=36:F2_CNE_BWC
999
Zone=37:F2_CNE_DORM1
999
Zone=38:F2_CNE_DORM2
999
Zone=39:F2_CNE_LIV
999
Zone=40:F2_CNW_BWC
999
Zone=41:F2_CNW_DORM1
999
Zone=42:F2_CNW_DORM2
999
Zone=43:F2_CNW_LIV
999
Zone=44:F2_CORE
999
Zone=45:F2_CSE_BWC
999
Zone=46:F2_CSE_DORM1
999
Zone=47:F2_CSE_DORM2
999
Zone=48:F2_CSE_LIV
999
Zone=49:F2_CSW_BWC
999
Zone=50:F2_CSW_DORM1
999
Zone=51:F2_CSW_DORM2
999
Zone=52:F2_CSW_LIV
999
Zone=53:F2_MNE_BWC
999
Zone=54:F2_MNE_DORM1
999
Zone=55:F2_MNE_DORM2
999
Zone=56:F2_MNE_LIV
999
Zone=57:F2_MNW_BWC
999
Zone=58:F2_MNW_DORM1
999
Zone=59:F2_MNW_DORM2
999
Zone=60:F2_MNW_LIV
999
Zone=61:F2_MSE_BWC1
999
Zone=62:F2_MSE_BWC2
999
Zone=63:F2_MSE_DORM1
999
Zone=64:F2_MSE_DORM2
999
Zone=65:F2_MSE_LIV
999
Zone=66:F2_MSW_BWC1
999
Zone=67:F2_MSW_BWC2
999
Zone=68:F2_MSW_DORM1
999
Zone=69:F2_MSW_DORM2
999
Zone=70:F2_MSW_LIV
999
Zone=71:F3_CNE_BWC
999
Zone=72:F3_CNE_DORM1
999
Zone=73:F3_CNE_DORM2
999
Zone=74:F3_CNE_LIV
999
Zone=75:F3_CNW_BWC
999
Zone=76:F3_CNW_DORM1
999
Zone=77:F3_CNW_DORM2
999
Zone=78:F3_CNW_LIV
999
Zone=79:F3_CORE
999
Zone=80:F3_CSE_BWC
999
Zone=81:F3_CSE_DORM1
999
Zone=82:F3_CSE_DORM2
999
Zone=83:F3_CSE_LIV
999
Zone=84:F3_CSW_BWC
999
Zone=85:F3_CSW_DORM1
999
Zone=86:F3_CSW_DORM2
999
Zone=87:F3_CSW_LIV
999
Zone=88:F3_MNE_BWC
999
Zone=89:F3_MNE_DORM1
999
Zone=90:F3_MNE_DORM2
999
Zone=91:F3_MNE_LIV
999
Zone=92:F3_MNW_BWC
999
Zone=93:F3_MNW_DORM1
999
Zone=94:F3_MNW_DORM2
999
Zone=95:F3_MNW_LIV
999
Zone=96:F3_MSE_BWC1
999
Zone=97:F3_MSE_BWC2
999
Zone=98:F3_MSE_DORM1
999
Zone=99:F3_MSE_DORM2
999
Zone=100:F3_MSE_LIV
999
Zone=101:F3_MSW_BWC1
999
Zone=102:F3_MSW_BWC2
999
Zone=103:F3_MSW_DORM1
999
Zone=104:F3_MSW_DORM2
999
Zone=105:F3_MSW_LIV
999
Zone=106:F4_CNE_BWC
999
Zone=107:F4_CNE_DORM1
999
Zone=108:F4_CNE_DORM2
999
Zone=109:F4_CNE_LIV
999
Zone=110:F4_CNW_BWC
999
Zone=111:F4_CNW_DORM1
999
Zone=112:F4_CNW_DORM2
999
Zone=113:F4_CNW_LIV
999
Zone=114:F4_CORE
999
Zone=115:F4_CSE_BWC
999
Zone=116:F4_CSE_DORM1
999
Zone=117:F4_CSE_DORM2
999
Zone=118:F4_CSE_LIV
999
Zone=119:F4_CSW_BWC
999
Zone=120:F4_CSW_DORM1
999
Zone=121:F4_CSW_DORM2
999
Zone=122:F4_CSW_LIV
999
Zone=123:F4_MNE_BWC
999
Zone=124:F4_MNE_DORM1
999
Zone=125:F4_MNE_DORM2
999
Zone=126:F4_MNE_LIV
999
Zone=127:F4_MNW_BWC
999
Zone=128:F4_MNW_DORM1
999
Zone=129:F4_MNW_DORM2
999
Zone=130:F4_MNW_LIV
999
Zone=131:F4_MSE_BWC1
999
Zone=132:F4_MSE_BWC2
999
Zone=133:F4_MSE_DORM1
999
Zone=134:F4_MSE_DORM2
999
Zone=135:F4_MSE_LIV
999
Zone=136:F4_MSW_BWC1
999
Zone=137:F4_MSW_BWC2
999
Zone=138:F4_MSW_DORM1
999
Zone=139:F4_MSW_DORM2
999
Zone=140:F4_MSW_LIV
999
Zone=141:F5_CNE_BWC
999
Zone=142:F5_CNE_DORM1
999
Zone=143:F5_CNE_DORM2
999
Zone=144:F5_CNE_LIV
999
Zone=145:F5_CNW_BWC
999
Zone=146:F5_CNW_DORM1
999
Zone=147:F5_CNW_DORM2
999
Zone=148:F5_CNW_LIV
999
Zone=149:F5_CORE
999
Zone=150:F5_CSE_BWC
999
Zone=151:F5_CSE_DORM1
999
Zone=152:F5_CSE_DORM2
999
Zone=153:F5_CSE_LIV
999
Zone=154:F5_CSW_BWC
999
Zone=155:F5_CSW_DORM1
999
Zone=156:F5_CSW_DORM2
999
Zone=157:F5_CSW_LIV
999
Zone=158:F5_MNE_BWC
999
Zone=159:F5_MNE_DORM1
999
Zone=160:F5_MNE_DORM2
999
Zone=161:F5_MNE_LIV
999
Zone=162:F5_MNW_BWC
999
Zone=163:F5_MNW_DORM1
999
Zone=164:F5_MNW_DORM2
999
Zone=165:F5_MNW_LIV
999
Zone=166:F5_MSE_BWC1
999
Zone=167:F5_MSE_BWC2
999
Zone=168:F5_MSE_DORM1
999
Zone=169:F5_MSE_DORM2
999
Zone=170:F5_MSE_LIV
999
Zone=171:F5_MSW_BWC1
999
Zone=172:F5_MSW_BWC2
999
Zone=173:F5_MSW_DORM1
999
Zone=174:F5_MSW_DORM2
999
Zone=175:F5_MSW_LIV
999
F1_CNE_BWC:F1_CNE_BWC_WALL1_INT
  0
3DFACE
  8
F1_CNE_BWC
 62
 43
 10
       34.92000
 20
        9.17000
 30
        2.60000
 11
       34.92000
 21
        9.17000
 31
        0.00000
 12
       36.12000
 22
        9.17000
 32
        0.00000
 13
       36.12000
 23
        9.17000
 33
        2.60000
999
F1_CNE_BWC:F1_CNE_BWC_DOOR1
  0
3DFACE
  8
F1_CNE_BWC
 62
 45
 10
       35.12000
 20
        9.17000
 30
        2.10000
 11
       35.12000
 21
        9.17000
 31
        0.00000
 12
       35.92000
 22
        9.17000
 32
        0.00000
 13
       35.92000
 23
        9.17000
 33
        2.10000
999
F1_CNE_BWC:F1_CNE_BWC_WALL2_INT
  0
3DFACE
  8
F1_CNE_BWC
 62
 43
 10
       36.12000
 20
        9.17000
 30
        2.60000
 11
       36.12000
 21
        9.17000
 31
        0.00000
 12
       36.12000
 22
       11.20000
 32
        0.00000
 13
       36.12000
 23
       11.20000
 33
        2.60000
999
F1_CNE_BWC:F1_CNE_BWC_WALL3_EXT
  0
3DFACE
  8
F1_CNE_BWC
 62
 43
 10
       36.12000
 20
       11.20000
 30
        2.60000
 11
       36.12000
 21
       11.20000
 31
        0.00000
 12
       34.92000
 22
       11.20000
 32
        0.00000
 13
       34.92000
 23
       11.20000
 33
        2.60000
999
F1_CNE_BWC:F1_CNE_BWC_WINDOW3
  0
3DFACE
  8
F1_CNE_BWC
 62
143
 10
       35.82000
 20
       11.20000
 30
        2.10000
 11
       35.82000
 21
       11.20000
 31
        1.50000
 12
       35.22000
 22
       11.20000
 32
        1.50000
 13
       35.22000
 23
       11.20000
 33
        2.10000
999
F1_CNE_BWC:F1_CNE_BWC_WALL4_INT
  0
3DFACE
  8
F1_CNE_BWC
 62
 43
 10
       34.92000
 20
       11.20000
 30
        2.60000
 11
       34.92000
 21
       11.20000
 31
        0.00000
 12
       34.92000
 22
        9.17000
 32
        0.00000
 13
       34.92000
 23
        9.17000
 33
        2.60000
999
F1_CNE_BWC:F1_CNE_BWC_FLOOR
  0
3DFACE
  8
F1_CNE_BWC
 62
  8
 10
       36.12000
 20
       11.20000
 30
        0.00000
 11
       36.12000
 21
        9.17000
 31
        0.00000
 12
       34.92000
 22
        9.17000
 32
        0.00000
 13
       34.92000
 23
       11.20000
 33
        0.00000
999
F1_CNE_BWC:F1_CNE_BWC_ROOF
  0
3DFACE
  8
F1_CNE_BWC
 62
 15
 10
       34.92000
 20
       11.20000
 30
        2.60000
 11
       34.92000
 21
        9.17000
 31
        2.60000
 12
       36.12000
 22
        9.17000
 32
        2.60000
 13
       36.12000
 23
       11.20000
 33
        2.60000
999
F1_CNE_DORM1:F1_CNE_DORM1_WALL2_EXT
  0
3DFACE
  8
F1_CNE_DORM1
 62
 43
 10
       38.68000
 20
        8.10000
 30
        2.60000
 11
       38.68000
 21
        8.10000
 31
        0.00000
 12
       38.68000
 22
       11.20000
 32
        0.00000
 13
       38.68000
 23
       11.20000
 33
        2.60000
999
F1_CNE_DORM1:F1_CNE_DORM1_WALL3_EXT
  0
3DFACE
  8
F1_CNE_DORM1
 62
 43
 10
       38.68000
 20
       11.20000
 30
        2.60000
 11
       38.68000
 21
       11.20000
 31
        0.00000
 12
       36.12000
 22
       11.20000
 32
        0.00000
 13
       36.12000
 23
       11.20000
 33
        2.60000
999
F1_CNE_DORM1:F1_CNE_DORM1_WINDOW3
  0
3DFACE
  8
F1_CNE_DORM1
 62
143
 10
       38.00000
 20
       11.20000
 30
        2.30000
 11
       38.00000
 21
       11.20000
 31
        1.10000
 12
       36.80000
 22
       11.20000
 32
        1.10000
 13
       36.80000
 23
       11.20000
 33
        2.30000
999
F1_CNE_DORM1:F1_CNE_DORM1_WALL11_INT
  0
3DFACE
  8
F1_CNE_DORM1
 62
 43
 10
       36.12000
 20
        8.10000
 30
        2.60000
 11
       36.12000
 21
        8.10000
 31
        0.00000
 12
       36.95000
 22
        8.10000
 32
        0.00000
 13
       36.95000
 23
        8.10000
 33
        2.60000
999
F1_CNE_DORM1:F1_CNE_DORM1_WALL12_EXT
  0
3DFACE
  8
F1_CNE_DORM1
 62
 43
 10
       36.95000
 20
        8.10000
 30
        2.60000
 11
       36.95000
 21
        8.10000
 31
        0.00000
 12
       38.68000
 22
        8.10000
 32
        0.00000
 13
       38.68000
 23
        8.10000
 33
        2.60000
999
F1_CNE_DORM1:F1_CNE_DORM1_WALL41_INT
  0
3DFACE
  8
F1_CNE_DORM1
 62
 43
 10
       36.12000
 20
       11.20000
 30
        2.60000
 11
       36.12000
 21
       11.20000
 31
        0.00000
 12
       36.12000
 22
        9.17000
 32
        0.00000
 13
       36.12000
 23
        9.17000
 33
        2.60000
999
F1_CNE_DORM1:F1_CNE_DORM1_WALL42_INT
  0
3DFACE
  8
F1_CNE_DORM1
 62
 43
 10
       36.12000
 20
        9.17000
 30
        2.60000
 11
       36.12000
 21
        9.17000
 31
        0.00000
 12
       36.12000
 22
        8.10000
 32
        0.00000
 13
       36.12000
 23
        8.10000
 33
        2.60000
999
F1_CNE_DORM1:F1_CNE_DORM1_DOOR4
  0
3DFACE
  8
F1_CNE_DORM1
 62
 45
 10
       36.12000
 20
        9.03500
 30
        2.10000
 11
       36.12000
 21
        9.03500
 31
        0.00000
 12
       36.12000
 22
        8.23500
 32
        0.00000
 13
       36.12000
 23
        8.23500
 33
        2.10000
999
F1_CNE_DORM1:F1_CNE_DORM1_FLOOR
  0
3DFACE
  8
F1_CNE_DORM1
 62
  8
 10
       38.68000
 20
       11.20000
 30
        0.00000
 11
       38.68000
 21
        8.10000
 31
        0.00000
 12
       36.12000
 22
        8.10000
 32
        0.00000
 13
       36.12000
 23
       11.20000
 33
        0.00000
999
F1_CNE_DORM1:F1_CNE_DORM1_ROOF
  0
3DFACE
  8
F1_CNE_DORM1
 62
 15
 10
       36.12000
 20
       11.20000
 30
        2.60000
 11
       36.12000
 21
        8.10000
 31
        2.60000
 12
       38.68000
 22
        8.10000
 32
        2.60000
 13
       38.68000
 23
       11.20000
 33
        2.60000
999
F1_CNE_DORM2:F1_CNE_DORM2_WALL1_INT
  0
3DFACE
  8
F1_CNE_DORM2
 62
 43
 10
       32.53000
 20
        8.10000
 30
        2.60000
 11
       32.53000
 21
        8.10000
 31
        0.00000
 12
       34.92000
 22
        8.10000
 32
        0.00000
 13
       34.92000
 23
        8.10000
 33
        2.60000
999
F1_CNE_DORM2:F1_CNE_DORM2_WALL3_EXT
  0
3DFACE
  8
F1_CNE_DORM2
 62
 43
 10
       34.92000
 20
       11.20000
 30
        2.60000
 11
       34.92000
 21
       11.20000
 31
        0.00000
 12
       32.53000
 22
       11.20000
 32
        0.00000
 13
       32.53000
 23
       11.20000
 33
        2.60000
999
F1_CNE_DORM2:F1_CNE_DORM2_WINDOW3
  0
3DFACE
  8
F1_CNE_DORM2
 62
143
 10
       34.32500
 20
       11.20000
 30
        2.30000
 11
       34.32500
 21
       11.20000
 31
        1.10000
 12
       33.12500
 22
       11.20000
 32
        1.10000
 13
       33.12500
 23
       11.20000
 33
        2.30000
999
F1_CNE_DORM2:F1_CNE_DORM2_WALL21_INT
  0
3DFACE
  8
F1_CNE_DORM2
 62
 43
 10
       34.92000
 20
        8.10000
 30
        2.60000
 11
       34.92000
 21
        8.10000
 31
        0.00000
 12
       34.92000
 22
        9.17000
 32
        0.00000
 13
       34.92000
 23
        9.17000
 33
        2.60000
999
F1_CNE_DORM2:F1_CNE_DORM2_DOOR2
  0
3DFACE
  8
F1_CNE_DORM2
 62
 45
 10
       34.92000
 20
        8.23500
 30
        2.10000
 11
       34.92000
 21
        8.23500
 31
        0.00000
 12
       34.92000
 22
        9.03500
 32
        0.00000
 13
       34.92000
 23
        9.03500
 33
        2.10000
999
F1_CNE_DORM2:F1_CNE_DORM2_WALL22_INT
  0
3DFACE
  8
F1_CNE_DORM2
 62
 43
 10
       34.92000
 20
        9.17000
 30
        2.60000
 11
       34.92000
 21
        9.17000
 31
        0.00000
 12
       34.92000
 22
       11.20000
 32
        0.00000
 13
       34.92000
 23
       11.20000
 33
        2.60000
999
F1_CNE_DORM2:F1_CNE_DORM2_WALL41
  0
3DFACE
  8
F1_CNE_DORM2
 62
 43
 10
       32.53000
 20
       11.20000
 30
        2.60000
 11
       32.53000
 21
       11.20000
 31
        0.00000
 12
       32.53000
 22
       10.63000
 32
        0.00000
 13
       32.53000
 23
       10.63000
 33
        2.60000
999
F1_CNE_DORM2:F1_CNE_DORM2_WALL42_INT
  0
3DFACE
  8
F1_CNE_DORM2
 62
 43
 10
       32.53000
 20
       10.63000
 30
        2.60000
 11
       32.53000
 21
       10.63000
 31
        0.00000
 12
       32.53000
 22
        8.10000
 32
        0.00000
 13
       32.53000
 23
        8.10000
 33
        2.60000
999
F1_CNE_DORM2:F1_CNE_DORM2_FLOOR
  0
3DFACE
  8
F1_CNE_DORM2
 62
  8
 10
       34.92000
 20
       11.20000
 30
        0.00000
 11
       34.92000
 21
        8.10000
 31
        0.00000
 12
       32.53000
 22
        8.10000
 32
        0.00000
 13
       32.53000
 23
       11.20000
 33
        0.00000
999
F1_CNE_DORM2:F1_CNE_DORM2_ROOF
  0
3DFACE
  8
F1_CNE_DORM2
 62
 15
 10
       32.53000
 20
       11.20000
 30
        2.60000
 11
       32.53000
 21
        8.10000
 31
        2.60000
 12
       34.92000
 22
        8.10000
 32
        2.60000
 13
       34.92000
 23
       11.20000
 33
        2.60000
999
F1_CNE_LIV:F1_CNE_LIV_WALL1_INT
  0
3DFACE
  8
F1_CNE_LIV
 62
 43
 10
       30.88000
 20
        5.60000
 30
        2.60000
 11
       30.88000
 21
        5.60000
 31
        0.00000
 12
       36.95000
 22
        5.60000
 32
        0.00000
 13
       36.95000
 23
        5.60000
 33
        2.60000
999
F1_CNE_LIV:F1_CNE_LIV_WALL21_EXT
  0
3DFACE
  8
F1_CNE_LIV
 62
 43
 10
       36.95000
 20
        5.60000
 30
        2.60000
 11
       36.95000
 21
        5.60000
 31
        0.00000
 12
       36.95000
 22
        8.10000
 32
        0.00000
 13
       36.95000
 23
        8.10000
 33
        2.60000
999
F1_CNE_LIV:F1_CNE_LIV_WINDOW2
  0
3DFACE
  8
F1_CNE_LIV
 62
143
 10
       36.95000
 20
        6.25000
 30
        2.30000
 11
       36.95000
 21
        6.25000
 31
        1.10000
 12
       36.95000
 22
        7.45000
 32
        1.10000
 13
       36.95000
 23
        7.45000
 33
        2.30000
999
F1_CNE_LIV:F1_CNE_LIV_WALL22_INT
  0
3DFACE
  8
F1_CNE_LIV
 62
 43
 10
       36.12000
 20
        8.10000
 30
        2.60000
 11
       36.12000
 21
        8.10000
 31
        0.00000
 12
       36.12000
 22
        9.17000
 32
        0.00000
 13
       36.12000
 23
        9.17000
 33
        2.60000
999
F1_CNE_LIV:F1_CNE_LIV_DOOR2
  0
3DFACE
  8
F1_CNE_LIV
 62
 45
 10
       36.12000
 20
        8.23500
 30
        2.10000
 11
       36.12000
 21
        8.23500
 31
        0.00000
 12
       36.12000
 22
        9.03500
 32
        0.00000
 13
       36.12000
 23
        9.03500
 33
        2.10000
999
F1_CNE_LIV:F1_CNE_LIV_WALL23_INT
  0
3DFACE
  8
F1_CNE_LIV
 62
 43
 10
       32.53000
 20
        8.10000
 30
        2.60000
 11
       32.53000
 21
        8.10000
 31
        0.00000
 12
       32.53000
 22
       10.63000
 32
        0.00000
 13
       32.53000
 23
       10.63000
 33
        2.60000
999
F1_CNE_LIV:F1_CNE_LIV_WALL31_INT
  0
3DFACE
  8
F1_CNE_LIV
 62
 43
 10
       36.95000
 20
        8.10000
 30
        2.60000
 11
       36.95000
 21
        8.10000
 31
        0.00000
 12
       36.12000
 22
        8.10000
 32
        0.00000
 13
       36.12000
 23
        8.10000
 33
        2.60000
999
F1_CNE_LIV:F1_CNE_LIV_WALL32_INT
  0
3DFACE
  8
F1_CNE_LIV
 62
 43
 10
       36.12000
 20
        9.17000
 30
        2.60000
 11
       36.12000
 21
        9.17000
 31
        0.00000
 12
       34.92000
 22
        9.17000
 32
        0.00000
 13
       34.92000
 23
        9.17000
 33
        2.60000
999
F1_CNE_LIV:F1_CNE_LIV_DOOR3
  0
3DFACE
  8
F1_CNE_LIV
 62
 45
 10
       35.92000
 20
        9.17000
 30
        2.10000
 11
       35.92000
 21
        9.17000
 31
        0.00000
 12
       35.12000
 22
        9.17000
 32
        0.00000
 13
       35.12000
 23
        9.17000
 33
        2.10000
999
F1_CNE_LIV:F1_CNE_LIV_WALL33_INT
  0
3DFACE
  8
F1_CNE_LIV
 62
 43
 10
       34.92000
 20
        8.10000
 30
        2.60000
 11
       34.92000
 21
        8.10000
 31
        0.00000
 12
       32.53000
 22
        8.10000
 32
        0.00000
 13
       32.53000
 23
        8.10000
 33
        2.60000
999
F1_CNE_LIV:F1_CNE_LIV_WALL34_EXT
  0
3DFACE
  8
F1_CNE_LIV
 62
 43
 10
       32.53000
 20
       10.63000
 30
        2.60000
 11
       32.53000
 21
       10.63000
 31
        0.00000
 12
       30.88000
 22
       10.63000
 32
        0.00000
 13
       30.88000
 23
       10.63000
 33
        2.60000
999
F1_CNE_LIV:F1_CNE_LIV_WINDOW3
  0
3DFACE
  8
F1_CNE_LIV
 62
143
 10
       32.30500
 20
       10.63000
 30
        2.30000
 11
       32.30500
 21
       10.63000
 31
        1.10000
 12
       31.10500
 22
       10.63000
 32
        1.10000
 13
       31.10500
 23
       10.63000
 33
        2.30000
999
F1_CNE_LIV:F1_CNE_LIV_WALL41_INT
  0
3DFACE
  8
F1_CNE_LIV
 62
 43
 10
       34.92000
 20
        9.17000
 30
        2.60000
 11
       34.92000
 21
        9.17000
 31
        0.00000
 12
       34.92000
 22
        8.10000
 32
        0.00000
 13
       34.92000
 23
        8.10000
 33
        2.60000
999
F1_CNE_LIV:F1_CNE_LIV_DOOR41
  0
3DFACE
  8
F1_CNE_LIV
 62
 45
 10
       34.92000
 20
        9.03500
 30
        2.10000
 11
       34.92000
 21
        9.03500
 31
        0.00000
 12
       34.92000
 22
        8.23500
 32
        0.00000
 13
       34.92000
 23
        8.23500
 33
        2.10000
999
F1_CNE_LIV:F1_CNE_LIV_WALL42_INT
  0
3DFACE
  8
F1_CNE_LIV
 62
 43
 10
       30.88000
 20
       10.63000
 30
        2.60000
 11
       30.88000
 21
       10.63000
 31
        0.00000
 12
       30.88000
 22
        6.73000
 32
        0.00000
 13
       30.88000
 23
        6.73000
 33
        2.60000
999
F1_CNE_LIV:F1_CNE_LIV_WALL43_INT
  0
3DFACE
  8
F1_CNE_LIV
 62
 43
 10
       30.88000
 20
        6.73000
 30
        2.60000
 11
       30.88000
 21
        6.73000
 31
        0.00000
 12
       30.88000
 22
        5.60000
 32
        0.00000
 13
       30.88000
 23
        5.60000
 33
        2.60000
999
F1_CNE_LIV:F1_CNE_LIV_DOOR42
  0
3DFACE
  8
F1_CNE_LIV
 62
 45
 10
       30.88000
 20
        6.56500
 30
        2.10000
 11
       30.88000
 21
        6.56500
 31
        0.00000
 12
       30.88000
 22
        5.76500
 32
        0.00000
 13
       30.88000
 23
        5.76500
 33
        2.10000
999
F1_CNE_LIV:F1_CNE_LIV_FLOOR
  0
POLYLINE
  8
F1_CNE_LIV
 62
  8
 66
  1
 10
 0.0
 20
 0.0
 30
        0.00000
 70
   9
 40
 0.55
 41
 0.55
  0
VERTEX
  8
F1_CNE_LIV
 10
       36.12000
 20
        9.17000
 30
        0.00000
  0
VERTEX
  8
F1_CNE_LIV
 10
       36.12000
 20
        8.10000
 30
        0.00000
  0
VERTEX
  8
F1_CNE_LIV
 10
       36.95000
 20
        8.10000
 30
        0.00000
  0
VERTEX
  8
F1_CNE_LIV
 10
       36.95000
 20
        5.60000
 30
        0.00000
  0
VERTEX
  8
F1_CNE_LIV
 10
       30.88000
 20
        5.60000
 30
        0.00000
  0
VERTEX
  8
F1_CNE_LIV
 10
       30.88000
 20
       10.63000
 30
        0.00000
  0
VERTEX
  8
F1_CNE_LIV
 10
       32.53000
 20
       10.63000
 30
        0.00000
  0
VERTEX
  8
F1_CNE_LIV
 10
       32.53000
 20
        8.10000
 30
        0.00000
  0
VERTEX
  8
F1_CNE_LIV
 10
       34.92000
 20
        8.10000
 30
        0.00000
  0
VERTEX
  8
F1_CNE_LIV
 10
       34.92000
 20
        9.17000
 30
        0.00000
  0
SEQEND
  8
F1_CNE_LIV
999
F1_CNE_LIV:F1_CNE_LIV_ROOF
  0
POLYLINE
  8
F1_CNE_LIV
 62
 15
 66
  1
 10
 0.0
 20
 0.0
 30
        2.60000
 70
   9
 40
 0.55
 41
 0.55
  0
VERTEX
  8
F1_CNE_LIV
 10
       30.88000
 20
       10.63000
 30
        2.60000
  0
VERTEX
  8
F1_CNE_LIV
 10
       30.88000
 20
        5.60000
 30
        2.60000
  0
VERTEX
  8
F1_CNE_LIV
 10
       36.95000
 20
        5.60000
 30
        2.60000
  0
VERTEX
  8
F1_CNE_LIV
 10
       36.95000
 20
        8.10000
 30
        2.60000
  0
VERTEX
  8
F1_CNE_LIV
 10
       36.12000
 20
        8.10000
 30
        2.60000
  0
VERTEX
  8
F1_CNE_LIV
 10
       36.12000
 20
        9.17000
 30
        2.60000
  0
VERTEX
  8
F1_CNE_LIV
 10
       34.92000
 20
        9.17000
 30
        2.60000
  0
VERTEX
  8
F1_CNE_LIV
 10
       34.92000
 20
        8.10000
 30
        2.60000
  0
VERTEX
  8
F1_CNE_LIV
 10
       32.53000
 20
        8.10000
 30
        2.60000
  0
VERTEX
  8
F1_CNE_LIV
 10
       32.53000
 20
       10.63000
 30
        2.60000
  0
SEQEND
  8
F1_CNE_LIV
999
F1_CNW_BWC:F1_CNW_BWC_WALL1_INT
  0
3DFACE
  8
F1_CNW_BWC
 62
 43
 10
        2.56000
 20
        9.17000
 30
        2.60000
 11
        2.56000
 21
        9.17000
 31
        0.00000
 12
        3.76000
 22
        9.17000
 32
        0.00000
 13
        3.76000
 23
        9.17000
 33
        2.60000
999
F1_CNW_BWC:F1_CNW_BWC_DOOR1
  0
3DFACE
  8
F1_CNW_BWC
 62
 45
 10
        2.76000
 20
        9.17000
 30
        2.10000
 11
        2.76000
 21
        9.17000
 31
        0.00000
 12
        3.56000
 22
        9.17000
 32
        0.00000
 13
        3.56000
 23
        9.17000
 33
        2.10000
999
F1_CNW_BWC:F1_CNW_BWC_WALL2_INT
  0
3DFACE
  8
F1_CNW_BWC
 62
 43
 10
        3.76000
 20
        9.17000
 30
        2.60000
 11
        3.76000
 21
        9.17000
 31
        0.00000
 12
        3.76000
 22
       11.20000
 32
        0.00000
 13
        3.76000
 23
       11.20000
 33
        2.60000
999
F1_CNW_BWC:F1_CNW_BWC_WALL3_EXT
  0
3DFACE
  8
F1_CNW_BWC
 62
 43
 10
        3.76000
 20
       11.20000
 30
        2.60000
 11
        3.76000
 21
       11.20000
 31
        0.00000
 12
        2.56000
 22
       11.20000
 32
        0.00000
 13
        2.56000
 23
       11.20000
 33
        2.60000
999
F1_CNW_BWC:F1_CNW_BWC_WINDOW3
  0
3DFACE
  8
F1_CNW_BWC
 62
143
 10
        3.46000
 20
       11.20000
 30
        2.10000
 11
        3.46000
 21
       11.20000
 31
        1.50000
 12
        2.86000
 22
       11.20000
 32
        1.50000
 13
        2.86000
 23
       11.20000
 33
        2.10000
999
F1_CNW_BWC:F1_CNW_BWC_WALL4_INT
  0
3DFACE
  8
F1_CNW_BWC
 62
 43
 10
        2.56000
 20
       11.20000
 30
        2.60000
 11
        2.56000
 21
       11.20000
 31
        0.00000
 12
        2.56000
 22
        9.17000
 32
        0.00000
 13
        2.56000
 23
        9.17000
 33
        2.60000
999
F1_CNW_BWC:F1_CNW_BWC_FLOOR
  0
3DFACE
  8
F1_CNW_BWC
 62
  8
 10
        3.76000
 20
       11.20000
 30
        0.00000
 11
        3.76000
 21
        9.17000
 31
        0.00000
 12
        2.56000
 22
        9.17000
 32
        0.00000
 13
        2.56000
 23
       11.20000
 33
        0.00000
999
F1_CNW_BWC:F1_CNW_BWC_ROOF
  0
3DFACE
  8
F1_CNW_BWC
 62
 15
 10
        2.56000
 20
       11.20000
 30
        2.60000
 11
        2.56000
 21
        9.17000
 31
        2.60000
 12
        3.76000
 22
        9.17000
 32
        2.60000
 13
        3.76000
 23
       11.20000
 33
        2.60000
999
F1_CNW_DORM1:F1_CNW_DORM1_WALL3_EXT
  0
3DFACE
  8
F1_CNW_DORM1
 62
 43
 10
        2.56000
 20
       11.20000
 30
        2.60000
 11
        2.56000
 21
       11.20000
 31
        0.00000
 12
        0.00000
 22
       11.20000
 32
        0.00000
 13
        0.00000
 23
       11.20000
 33
        2.60000
999
F1_CNW_DORM1:F1_CNW_DORM1_WINDOW3
  0
3DFACE
  8
F1_CNW_DORM1
 62
143
 10
        1.88000
 20
       11.20000
 30
        2.30000
 11
        1.88000
 21
       11.20000
 31
        1.10000
 12
        0.68000
 22
       11.20000
 32
        1.10000
 13
        0.68000
 23
       11.20000
 33
        2.30000
999
F1_CNW_DORM1:F1_CNW_DORM1_WALL4_EXT
  0
3DFACE
  8
F1_CNW_DORM1
 62
 43
 10
        0.00000
 20
       11.20000
 30
        2.60000
 11
        0.00000
 21
       11.20000
 31
        0.00000
 12
        0.00000
 22
        8.10000
 32
        0.00000
 13
        0.00000
 23
        8.10000
 33
        2.60000
999
F1_CNW_DORM1:F1_CNW_DORM1_WALL11_EXT
  0
3DFACE
  8
F1_CNW_DORM1
 62
 43
 10
        0.00000
 20
        8.10000
 30
        2.60000
 11
        0.00000
 21
        8.10000
 31
        0.00000
 12
        1.73000
 22
        8.10000
 32
        0.00000
 13
        1.73000
 23
        8.10000
 33
        2.60000
999
F1_CNW_DORM1:F1_CNW_DORM1_WALL12_INT
  0
3DFACE
  8
F1_CNW_DORM1
 62
 43
 10
        1.73000
 20
        8.10000
 30
        2.60000
 11
        1.73000
 21
        8.10000
 31
        0.00000
 12
        2.56000
 22
        8.10000
 32
        0.00000
 13
        2.56000
 23
        8.10000
 33
        2.60000
999
F1_CNW_DORM1:F1_CNW_DORM1_WALL21_INT
  0
3DFACE
  8
F1_CNW_DORM1
 62
 43
 10
        2.56000
 20
        8.10000
 30
        2.60000
 11
        2.56000
 21
        8.10000
 31
        0.00000
 12
        2.56000
 22
        9.17000
 32
        0.00000
 13
        2.56000
 23
        9.17000
 33
        2.60000
999
F1_CNW_DORM1:F1_CNW_DORM1_DOOR2
  0
3DFACE
  8
F1_CNW_DORM1
 62
 45
 10
        2.56000
 20
        8.23500
 30
        2.10000
 11
        2.56000
 21
        8.23500
 31
        0.00000
 12
        2.56000
 22
        9.03500
 32
        0.00000
 13
        2.56000
 23
        9.03500
 33
        2.10000
999
F1_CNW_DORM1:F1_CNW_DORM1_WALL22_INT
  0
3DFACE
  8
F1_CNW_DORM1
 62
 43
 10
        2.56000
 20
        9.17000
 30
        2.60000
 11
        2.56000
 21
        9.17000
 31
        0.00000
 12
        2.56000
 22
       11.20000
 32
        0.00000
 13
        2.56000
 23
       11.20000
 33
        2.60000
999
F1_CNW_DORM1:F1_CNW_DORM1_FLOOR
  0
3DFACE
  8
F1_CNW_DORM1
 62
  8
 10
        2.56000
 20
       11.20000
 30
        0.00000
 11
        2.56000
 21
        8.10000
 31
        0.00000
 12
        0.00000
 22
        8.10000
 32
        0.00000
 13
        0.00000
 23
       11.20000
 33
        0.00000
999
F1_CNW_DORM1:F1_CNW_DORM1_ROOF
  0
3DFACE
  8
F1_CNW_DORM1
 62
 15
 10
        0.00000
 20
       11.20000
 30
        2.60000
 11
        0.00000
 21
        8.10000
 31
        2.60000
 12
        2.56000
 22
        8.10000
 32
        2.60000
 13
        2.56000
 23
       11.20000
 33
        2.60000
999
F1_CNW_DORM2:F1_CNW_DORM2_WALL1_INT
  0
3DFACE
  8
F1_CNW_DORM2
 62
 43
 10
        3.76000
 20
        8.10000
 30
        2.60000
 11
        3.76000
 21
        8.10000
 31
        0.00000
 12
        6.15000
 22
        8.10000
 32
        0.00000
 13
        6.15000
 23
        8.10000
 33
        2.60000
999
F1_CNW_DORM2:F1_CNW_DORM2_WALL3_EXT
  0
3DFACE
  8
F1_CNW_DORM2
 62
 43
 10
        6.15000
 20
       11.20000
 30
        2.60000
 11
        6.15000
 21
       11.20000
 31
        0.00000
 12
        3.76000
 22
       11.20000
 32
        0.00000
 13
        3.76000
 23
       11.20000
 33
        2.60000
999
F1_CNW_DORM2:F1_CNW_DORM2_WINDOW3
  0
3DFACE
  8
F1_CNW_DORM2
 62
143
 10
        5.55500
 20
       11.20000
 30
        2.30000
 11
        5.55500
 21
       11.20000
 31
        1.10000
 12
        4.35500
 22
       11.20000
 32
        1.10000
 13
        4.35500
 23
       11.20000
 33
        2.30000
999
F1_CNW_DORM2:F1_CNW_DORM2_WALL21_INT
  0
3DFACE
  8
F1_CNW_DORM2
 62
 43
 10
        6.15000
 20
        8.10000
 30
        2.60000
 11
        6.15000
 21
        8.10000
 31
        0.00000
 12
        6.15000
 22
       10.63000
 32
        0.00000
 13
        6.15000
 23
       10.63000
 33
        2.60000
999
F1_CNW_DORM2:F1_CNW_DORM2_WALL22_EXT
  0
3DFACE
  8
F1_CNW_DORM2
 62
 43
 10
        6.15000
 20
       10.63000
 30
        2.60000
 11
        6.15000
 21
       10.63000
 31
        0.00000
 12
        6.15000
 22
       11.20000
 32
        0.00000
 13
        6.15000
 23
       11.20000
 33
        2.60000
999
F1_CNW_DORM2:F1_CNW_DORM2_WALL41_INT
  0
3DFACE
  8
F1_CNW_DORM2
 62
 43
 10
        3.76000
 20
       11.20000
 30
        2.60000
 11
        3.76000
 21
       11.20000
 31
        0.00000
 12
        3.76000
 22
        9.17000
 32
        0.00000
 13
        3.76000
 23
        9.17000
 33
        2.60000
999
F1_CNW_DORM2:F1_CNW_DORM2_WALL42_INT
  0
3DFACE
  8
F1_CNW_DORM2
 62
 43
 10
        3.76000
 20
        9.17000
 30
        2.60000
 11
        3.76000
 21
        9.17000
 31
        0.00000
 12
        3.76000
 22
        8.10000
 32
        0.00000
 13
        3.76000
 23
        8.10000
 33
        2.60000
999
F1_CNW_DORM2:F1_CNW_DORM2_DOOR4
  0
3DFACE
  8
F1_CNW_DORM2
 62
 45
 10
        3.76000
 20
        9.03500
 30
        2.10000
 11
        3.76000
 21
        9.03500
 31
        0.00000
 12
        3.76000
 22
        8.23500
 32
        0.00000
 13
        3.76000
 23
        8.23500
 33
        2.10000
999
F1_CNW_DORM2:F1_CNW_DORM2_FLOOR
  0
3DFACE
  8
F1_CNW_DORM2
 62
  8
 10
        6.15000
 20
       11.20000
 30
        0.00000
 11
        6.15000
 21
        8.10000
 31
        0.00000
 12
        3.76000
 22
        8.10000
 32
        0.00000
 13
        3.76000
 23
       11.20000
 33
        0.00000
999
F1_CNW_DORM2:F1_CNW_DORM2_ROOF
  0
3DFACE
  8
F1_CNW_DORM2
 62
 15
 10
        3.76000
 20
       11.20000
 30
        2.60000
 11
        3.76000
 21
        8.10000
 31
        2.60000
 12
        6.15000
 22
        8.10000
 32
        2.60000
 13
        6.15000
 23
       11.20000
 33
        2.60000
999
F1_CNW_LIV:F1_CNW_LIV_WALL1_INT
  0
3DFACE
  8
F1_CNW_LIV
 62
 43
 10
        1.73000
 20
        5.60000
 30
        2.60000
 11
        1.73000
 21
        5.60000
 31
        0.00000
 12
        7.80000
 22
        5.60000
 32
        0.00000
 13
        7.80000
 23
        5.60000
 33
        2.60000
999
F1_CNW_LIV:F1_CNW_LIV_WALL21_INT
  0
3DFACE
  8
F1_CNW_LIV
 62
 43
 10
        7.80000
 20
        5.60000
 30
        2.60000
 11
        7.80000
 21
        5.60000
 31
        0.00000
 12
        7.80000
 22
        6.73000
 32
        0.00000
 13
        7.80000
 23
        6.73000
 33
        2.60000
999
F1_CNW_LIV:F1_CNW_LIV_DOOR21
  0
3DFACE
  8
F1_CNW_LIV
 62
 45
 10
        7.80000
 20
        5.76500
 30
        2.10000
 11
        7.80000
 21
        5.76500
 31
        0.00000
 12
        7.80000
 22
        6.56500
 32
        0.00000
 13
        7.80000
 23
        6.56500
 33
        2.10000
999
F1_CNW_LIV:F1_CNW_LIV_WALL22_INT
  0
3DFACE
  8
F1_CNW_LIV
 62
 43
 10
        7.80000
 20
        6.73000
 30
        2.60000
 11
        7.80000
 21
        6.73000
 31
        0.00000
 12
        7.80000
 22
       10.63000
 32
        0.00000
 13
        7.80000
 23
       10.63000
 33
        2.60000
999
F1_CNW_LIV:F1_CNW_LIV_WALL23_INT
  0
3DFACE
  8
F1_CNW_LIV
 62
 43
 10
        3.76000
 20
        8.10000
 30
        2.60000
 11
        3.76000
 21
        8.10000
 31
        0.00000
 12
        3.76000
 22
        9.17000
 32
        0.00000
 13
        3.76000
 23
        9.17000
 33
        2.60000
999
F1_CNW_LIV:F1_CNW_LIV_DOOR22
  0
3DFACE
  8
F1_CNW_LIV
 62
 45
 10
        3.76000
 20
        8.23500
 30
        2.10000
 11
        3.76000
 21
        8.23500
 31
        0.00000
 12
        3.76000
 22
        9.03500
 32
        0.00000
 13
        3.76000
 23
        9.03500
 33
        2.10000
999
F1_CNW_LIV:F1_CNW_LIV_WALL31_EXT
  0
3DFACE
  8
F1_CNW_LIV
 62
 43
 10
        7.80000
 20
       10.63000
 30
        2.60000
 11
        7.80000
 21
       10.63000
 31
        0.00000
 12
        6.15000
 22
       10.63000
 32
        0.00000
 13
        6.15000
 23
       10.63000
 33
        2.60000
999
F1_CNW_LIV:F1_CNW_LIV_WINDOW3
  0
3DFACE
  8
F1_CNW_LIV
 62
143
 10
        7.57500
 20
       10.63000
 30
        2.30000
 11
        7.57500
 21
       10.63000
 31
        1.10000
 12
        6.37500
 22
       10.63000
 32
        1.10000
 13
        6.37500
 23
       10.63000
 33
        2.30000
999
F1_CNW_LIV:F1_CNW_LIV_WALL32_INT
  0
3DFACE
  8
F1_CNW_LIV
 62
 43
 10
        6.15000
 20
        8.10000
 30
        2.60000
 11
        6.15000
 21
        8.10000
 31
        0.00000
 12
        3.76000
 22
        8.10000
 32
        0.00000
 13
        3.76000
 23
        8.10000
 33
        2.60000
999
F1_CNW_LIV:F1_CNW_LIV_WALL33_INT
  0
3DFACE
  8
F1_CNW_LIV
 62
 43
 10
        3.76000
 20
        9.17000
 30
        2.60000
 11
        3.76000
 21
        9.17000
 31
        0.00000
 12
        2.56000
 22
        9.17000
 32
        0.00000
 13
        2.56000
 23
        9.17000
 33
        2.60000
999
F1_CNW_LIV:F1_CNW_LIV_DOOR3
  0
3DFACE
  8
F1_CNW_LIV
 62
 45
 10
        3.56000
 20
        9.17000
 30
        2.10000
 11
        3.56000
 21
        9.17000
 31
        0.00000
 12
        2.76000
 22
        9.17000
 32
        0.00000
 13
        2.76000
 23
        9.17000
 33
        2.10000
999
F1_CNW_LIV:F1_CNW_LIV_WALL34_INT
  0
3DFACE
  8
F1_CNW_LIV
 62
 43
 10
        2.56000
 20
        8.10000
 30
        2.60000
 11
        2.56000
 21
        8.10000
 31
        0.00000
 12
        1.73000
 22
        8.10000
 32
        0.00000
 13
        1.73000
 23
        8.10000
 33
        2.60000
999
F1_CNW_LIV:F1_CNW_LIV_WALL41_INT
  0
3DFACE
  8
F1_CNW_LIV
 62
 43
 10
        6.15000
 20
       10.63000
 30
        2.60000
 11
        6.15000
 21
       10.63000
 31
        0.00000
 12
        6.15000
 22
        8.10000
 32
        0.00000
 13
        6.15000
 23
        8.10000
 33
        2.60000
999
F1_CNW_LIV:F1_CNW_LIV_WALL42_INT
  0
3DFACE
  8
F1_CNW_LIV
 62
 43
 10
        2.56000
 20
        9.17000
 30
        2.60000
 11
        2.56000
 21
        9.17000
 31
        0.00000
 12
        2.56000
 22
        8.10000
 32
        0.00000
 13
        2.56000
 23
        8.10000
 33
        2.60000
999
F1_CNW_LIV:F1_CNW_LIV_DOOR4
  0
3DFACE
  8
F1_CNW_LIV
 62
 45
 10
        2.56000
 20
        9.03500
 30
        2.10000
 11
        2.56000
 21
        9.03500
 31
        0.00000
 12
        2.56000
 22
        8.23500
 32
        0.00000
 13
        2.56000
 23
        8.23500
 33
        2.10000
999
F1_CNW_LIV:F1_CNW_LIV_WALL43_EXT
  0
3DFACE
  8
F1_CNW_LIV
 62
 43
 10
        1.73000
 20
        8.10000
 30
        2.60000
 11
        1.73000
 21
        8.10000
 31
        0.00000
 12
        1.73000
 22
        5.60000
 32
        0.00000
 13
        1.73000
 23
        5.60000
 33
        2.60000
999
F1_CNW_LIV:F1_CNW_LIV_WINDOW4
  0
3DFACE
  8
F1_CNW_LIV
 62
143
 10
        1.73000
 20
        7.45000
 30
        2.30000
 11
        1.73000
 21
        7.45000
 31
        1.10000
 12
        1.73000
 22
        6.25000
 32
        1.10000
 13
        1.73000
 23
        6.25000
 33
        2.30000
999
F1_CNW_LIV:F1_CNW_LIV_FLOOR
  0
POLYLINE
  8
F1_CNW_LIV
 62
  8
 66
  1
 10
 0.0
 20
 0.0
 30
        0.00000
 70
   9
 40
 0.55
 41
 0.55
  0
VERTEX
  8
F1_CNW_LIV
 10
        7.80000
 20
       10.63000
 30
        0.00000
  0
VERTEX
  8
F1_CNW_LIV
 10
        7.80000
 20
        5.60000
 30
        0.00000
  0
VERTEX
  8
F1_CNW_LIV
 10
        1.73000
 20
        5.60000
 30
        0.00000
  0
VERTEX
  8
F1_CNW_LIV
 10
        1.73000
 20
        8.10000
 30
        0.00000
  0
VERTEX
  8
F1_CNW_LIV
 10
        2.56000
 20
        8.10000
 30
        0.00000
  0
VERTEX
  8
F1_CNW_LIV
 10
        2.56000
 20
        9.17000
 30
        0.00000
  0
VERTEX
  8
F1_CNW_LIV
 10
        3.76000
 20
        9.17000
 30
        0.00000
  0
VERTEX
  8
F1_CNW_LIV
 10
        3.76000
 20
        8.10000
 30
        0.00000
  0
VERTEX
  8
F1_CNW_LIV
 10
        6.15000
 20
        8.10000
 30
        0.00000
  0
VERTEX
  8
F1_CNW_LIV
 10
        6.15000
 20
       10.63000
 30
        0.00000
  0
SEQEND
  8
F1_CNW_LIV
999
F1_CNW_LIV:F1_CNW_LIV_ROOF
  0
POLYLINE
  8
F1_CNW_LIV
 62
 15
 66
  1
 10
 0.0
 20
 0.0
 30
        2.60000
 70
   9
 40
 0.55
 41
 0.55
  0
VERTEX
  8
F1_CNW_LIV
 10
        2.56000
 20
        9.17000
 30
        2.60000
  0
VERTEX
  8
F1_CNW_LIV
 10
        2.56000
 20
        8.10000
 30
        2.60000
  0
VERTEX
  8
F1_CNW_LIV
 10
        1.73000
 20
        8.10000
 30
        2.60000
  0
VERTEX
  8
F1_CNW_LIV
 10
        1.73000
 20
        5.60000
 30
        2.60000
  0
VERTEX
  8
F1_CNW_LIV
 10
        7.80000
 20
        5.60000
 30
        2.60000
  0
VERTEX
  8
F1_CNW_LIV
 10
        7.80000
 20
       10.63000
 30
        2.60000
  0
VERTEX
  8
F1_CNW_LIV
 10
        6.15000
 20
       10.63000
 30
        2.60000
  0
VERTEX
  8
F1_CNW_LIV
 10
        6.15000
 20
        8.10000
 30
        2.60000
  0
VERTEX
  8
F1_CNW_LIV
 10
        3.76000
 20
        8.10000
 30
        2.60000
  0
VERTEX
  8
F1_CNW_LIV
 10
        3.76000
 20
        9.17000
 30
        2.60000
  0
SEQEND
  8
F1_CNW_LIV
999
F1_CORE:F1_CORE_WALL11_INT
  0
3DFACE
  8
F1_CORE
 62
 43
 10
        7.80000
 20
        4.47000
 30
        2.60000
 11
        7.80000
 21
        4.47000
 31
        0.00000
 12
        9.45000
 22
        4.47000
 32
        0.00000
 13
        9.45000
 23
        4.47000
 33
        2.60000
999
F1_CORE:F1_CORE_WALL12_INT
  0
3DFACE
  8
F1_CORE
 62
 43
 10
        9.45000
 20
        4.83500
 30
        2.60000
 11
        9.45000
 21
        4.83500
 31
        0.00000
 12
       11.85000
 22
        4.83500
 32
        0.00000
 13
       11.85000
 23
        4.83500
 33
        2.60000
999
F1_CORE:F1_CORE_DOOR11
  0
3DFACE
  8
F1_CORE
 62
 45
 10
       10.95000
 20
        4.83500
 30
        2.10000
 11
       10.95000
 21
        4.83500
 31
        0.00000
 12
       11.75000
 22
        4.83500
 32
        0.00000
 13
       11.75000
 23
        4.83500
 33
        2.10000
999
F1_CORE:F1_CORE_WALL13_INT
  0
3DFACE
  8
F1_CORE
 62
 43
 10
       11.85000
 20
        4.83500
 30
        2.60000
 11
       11.85000
 21
        4.83500
 31
        0.00000
 12
       14.10000
 22
        4.83500
 32
        0.00000
 13
       14.10000
 23
        4.83500
 33
        2.60000
999
F1_CORE:F1_CORE_WALL14_INT
  0
3DFACE
  8
F1_CORE
 62
 43
 10
       14.10000
 20
        4.83500
 30
        2.60000
 11
       14.10000
 21
        4.83500
 31
        0.00000
 12
       15.98000
 22
        4.83500
 32
        0.00000
 13
       15.98000
 23
        4.83500
 33
        2.60000
999
F1_CORE:F1_CORE_WALL15_INT
  0
3DFACE
  8
F1_CORE
 62
 43
 10
       15.98000
 20
        4.83500
 30
        2.60000
 11
       15.98000
 21
        4.83500
 31
        0.00000
 12
       18.14000
 22
        4.83500
 32
        0.00000
 13
       18.14000
 23
        4.83500
 33
        2.60000
999
F1_CORE:F1_CORE_WALL16_EXT
  0
3DFACE
  8
F1_CORE
 62
 43
 10
       18.14000
 20
        0.57000
 30
        2.60000
 11
       18.14000
 21
        0.57000
 31
        0.00000
 12
       20.54000
 22
        0.57000
 32
        0.00000
 13
       20.54000
 23
        0.57000
 33
        2.60000
999
F1_CORE:F1_CORE_WINDOW1
  0
3DFACE
  8
F1_CORE
 62
143
 10
       18.74000
 20
        0.57000
 30
        2.30000
 11
       18.74000
 21
        0.57000
 31
        1.10000
 12
       19.94000
 22
        0.57000
 32
        1.10000
 13
       19.94000
 23
        0.57000
 33
        2.30000
999
F1_CORE:F1_CORE_WALL17_INT
  0
3DFACE
  8
F1_CORE
 62
 43
 10
       20.54000
 20
        4.83500
 30
        2.60000
 11
       20.54000
 21
        4.83500
 31
        0.00000
 12
       22.70000
 22
        4.83500
 32
        0.00000
 13
       22.70000
 23
        4.83500
 33
        2.60000
999
F1_CORE:F1_CORE_WALL18_INT
  0
3DFACE
  8
F1_CORE
 62
 43
 10
       22.70000
 20
        4.83500
 30
        2.60000
 11
       22.70000
 21
        4.83500
 31
        0.00000
 12
       24.58000
 22
        4.83500
 32
        0.00000
 13
       24.58000
 23
        4.83500
 33
        2.60000
999
F1_CORE:F1_CORE_WALL19_INT
  0
3DFACE
  8
F1_CORE
 62
 43
 10
       24.58000
 20
        4.83500
 30
        2.60000
 11
       24.58000
 21
        4.83500
 31
        0.00000
 12
       26.83000
 22
        4.83500
 32
        0.00000
 13
       26.83000
 23
        4.83500
 33
        2.60000
999
F1_CORE:F1_CORE_WALL21_INT
  0
3DFACE
  8
F1_CORE
 62
 43
 10
        9.45000
 20
        4.47000
 30
        2.60000
 11
        9.45000
 21
        4.47000
 31
        0.00000
 12
        9.45000
 22
        4.83500
 32
        0.00000
 13
        9.45000
 23
        4.83500
 33
        2.60000
999
F1_CORE:F1_CORE_WALL22_INT
  0
3DFACE
  8
F1_CORE
 62
 43
 10
       20.54000
 20
        0.57000
 30
        2.60000
 11
       20.54000
 21
        0.57000
 31
        0.00000
 12
       20.54000
 22
        3.63500
 32
        0.00000
 13
       20.54000
 23
        3.63500
 33
        2.60000
999
F1_CORE:F1_CORE_WALL23_INT
  0
3DFACE
  8
F1_CORE
 62
 43
 10
       20.54000
 20
        3.63500
 30
        2.60000
 11
       20.54000
 21
        3.63500
 31
        0.00000
 12
       20.54000
 22
        4.83500
 32
        0.00000
 13
       20.54000
 23
        4.83500
 33
        2.60000
999
F1_CORE:F1_CORE_WALL24_INT
  0
3DFACE
  8
F1_CORE
 62
 43
 10
       30.88000
 20
        4.47000
 30
        2.60000
 11
       30.88000
 21
        4.47000
 31
        0.00000
 12
       30.88000
 22
        5.60000
 32
        0.00000
 13
       30.88000
 23
        5.60000
 33
        2.60000
999
F1_CORE:F1_CORE_DOOR21
  0
3DFACE
  8
F1_CORE
 62
 45
 10
       30.88000
 20
        4.63500
 30
        2.10000
 11
       30.88000
 21
        4.63500
 31
        0.00000
 12
       30.88000
 22
        5.43500
 32
        0.00000
 13
       30.88000
 23
        5.43500
 33
        2.10000
999
F1_CORE:F1_CORE_WALL25_INT
  0
3DFACE
  8
F1_CORE
 62
 43
 10
       30.88000
 20
        5.60000
 30
        2.60000
 11
       30.88000
 21
        5.60000
 31
        0.00000
 12
       30.88000
 22
        6.73000
 32
        0.00000
 13
       30.88000
 23
        6.73000
 33
        2.60000
999
F1_CORE:F1_CORE_DOOR22
  0
3DFACE
  8
F1_CORE
 62
 45
 10
       30.88000
 20
        5.76500
 30
        2.10000
 11
       30.88000
 21
        5.76500
 31
        0.00000
 12
       30.88000
 22
        6.56500
 32
        0.00000
 13
       30.88000
 23
        6.56500
 33
        2.10000
999
F1_CORE:F1_CORE_WALL26_INT
  0
3DFACE
  8
F1_CORE
 62
 43
 10
       22.70000
 20
        6.36500
 30
        2.60000
 11
       22.70000
 21
        6.36500
 31
        0.00000
 12
       22.70000
 22
        7.56500
 32
        0.00000
 13
       22.70000
 23
        7.56500
 33
        2.60000
999
F1_CORE:F1_CORE_WALL27_INT
  0
3DFACE
  8
F1_CORE
 62
 43
 10
       20.54000
 20
        7.56500
 30
        2.60000
 11
       20.54000
 21
        7.56500
 31
        0.00000
 12
       20.54000
 22
       10.63000
 32
        0.00000
 13
       20.54000
 23
       10.63000
 33
        2.60000
999
F1_CORE:F1_CORE_WALL28_INT
  0
3DFACE
  8
F1_CORE
 62
 43
 10
        9.45000
 20
        6.36500
 30
        2.60000
 11
        9.45000
 21
        6.36500
 31
        0.00000
 12
        9.45000
 22
        6.73000
 32
        0.00000
 13
        9.45000
 23
        6.73000
 33
        2.60000
999
F1_CORE:F1_CORE_WALL31_INT
  0
3DFACE
  8
F1_CORE
 62
 43
 10
       30.88000
 20
        6.73000
 30
        2.60000
 11
       30.88000
 21
        6.73000
 31
        0.00000
 12
       29.23000
 22
        6.73000
 32
        0.00000
 13
       29.23000
 23
        6.73000
 33
        2.60000
999
F1_CORE:F1_CORE_WALL32_INT
  0
3DFACE
  8
F1_CORE
 62
 43
 10
       29.23000
 20
        6.36500
 30
        2.60000
 11
       29.23000
 21
        6.36500
 31
        0.00000
 12
       26.83000
 22
        6.36500
 32
        0.00000
 13
       26.83000
 23
        6.36500
 33
        2.60000
999
F1_CORE:F1_CORE_DOOR31
  0
3DFACE
  8
F1_CORE
 62
 45
 10
       27.73000
 20
        6.36500
 30
        2.10000
 11
       27.73000
 21
        6.36500
 31
        0.00000
 12
       26.93000
 22
        6.36500
 32
        0.00000
 13
       26.93000
 23
        6.36500
 33
        2.10000
999
F1_CORE:F1_CORE_WALL33_INT
  0
3DFACE
  8
F1_CORE
 62
 43
 10
       26.83000
 20
        6.36500
 30
        2.60000
 11
       26.83000
 21
        6.36500
 31
        0.00000
 12
       24.58000
 22
        6.36500
 32
        0.00000
 13
       24.58000
 23
        6.36500
 33
        2.60000
999
F1_CORE:F1_CORE_WALL34_INT
  0
3DFACE
  8
F1_CORE
 62
 43
 10
       24.58000
 20
        6.36500
 30
        2.60000
 11
       24.58000
 21
        6.36500
 31
        0.00000
 12
       22.70000
 22
        6.36500
 32
        0.00000
 13
       22.70000
 23
        6.36500
 33
        2.60000
999
F1_CORE:F1_CORE_WALL35_INT
  0
3DFACE
  8
F1_CORE
 62
 43
 10
       22.70000
 20
        7.56500
 30
        2.60000
 11
       22.70000
 21
        7.56500
 31
        0.00000
 12
       20.54000
 22
        7.56500
 32
        0.00000
 13
       20.54000
 23
        7.56500
 33
        2.60000
999
F1_CORE:F1_CORE_WALL36_EXT
  0
3DFACE
  8
F1_CORE
 62
 43
 10
       20.54000
 20
       10.63000
 30
        2.60000
 11
       20.54000
 21
       10.63000
 31
        0.00000
 12
       18.14000
 22
       10.63000
 32
        0.00000
 13
       18.14000
 23
       10.63000
 33
        2.60000
999
F1_CORE:F1_CORE_WINDOW3
  0
3DFACE
  8
F1_CORE
 62
143
 10
       19.94000
 20
       10.63000
 30
        2.30000
 11
       19.94000
 21
       10.63000
 31
        1.10000
 12
       18.74000
 22
       10.63000
 32
        1.10000
 13
       18.74000
 23
       10.63000
 33
        2.30000
999
F1_CORE:F1_CORE_WALL37_INT
  0
3DFACE
  8
F1_CORE
 62
 43
 10
       18.14000
 20
        7.56500
 30
        2.60000
 11
       18.14000
 21
        7.56500
 31
        0.00000
 12
       15.98000
 22
        7.56500
 32
        0.00000
 13
       15.98000
 23
        7.56500
 33
        2.60000
999
F1_CORE:F1_CORE_WALL38_INT
  0
3DFACE
  8
F1_CORE
 62
 43
 10
       15.98000
 20
        6.36500
 30
        2.60000
 11
       15.98000
 21
        6.36500
 31
        0.00000
 12
       14.10000
 22
        6.36500
 32
        0.00000
 13
       14.10000
 23
        6.36500
 33
        2.60000
999
F1_CORE:F1_CORE_WALL39_INT
  0
3DFACE
  8
F1_CORE
 62
 43
 10
       14.10000
 20
        6.36500
 30
        2.60000
 11
       14.10000
 21
        6.36500
 31
        0.00000
 12
       11.85000
 22
        6.36500
 32
        0.00000
 13
       11.85000
 23
        6.36500
 33
        2.60000
999
F1_CORE:F1_CORE_WALL41_INT
  0
3DFACE
  8
F1_CORE
 62
 43
 10
       18.14000
 20
        4.83500
 30
        2.60000
 11
       18.14000
 21
        4.83500
 31
        0.00000
 12
       18.14000
 22
        3.63500
 32
        0.00000
 13
       18.14000
 23
        3.63500
 33
        2.60000
999
F1_CORE:F1_CORE_WALL42_INT
  0
3DFACE
  8
F1_CORE
 62
 43
 10
       18.14000
 20
        3.63500
 30
        2.60000
 11
       18.14000
 21
        3.63500
 31
        0.00000
 12
       18.14000
 22
        0.57000
 32
        0.00000
 13
       18.14000
 23
        0.57000
 33
        2.60000
999
F1_CORE:F1_CORE_WALL43_INT
  0
3DFACE
  8
F1_CORE
 62
 43
 10
       29.23000
 20
        4.83500
 30
        2.60000
 11
       29.23000
 21
        4.83500
 31
        0.00000
 12
       29.23000
 22
        4.47000
 32
        0.00000
 13
       29.23000
 23
        4.47000
 33
        2.60000
999
F1_CORE:F1_CORE_WALL44_INT
  0
3DFACE
  8
F1_CORE
 62
 43
 10
       29.23000
 20
        6.73000
 30
        2.60000
 11
       29.23000
 21
        6.73000
 31
        0.00000
 12
       29.23000
 22
        6.36500
 32
        0.00000
 13
       29.23000
 23
        6.36500
 33
        2.60000
999
F1_CORE:F1_CORE_WALL45_INT
  0
3DFACE
  8
F1_CORE
 62
 43
 10
       18.14000
 20
       10.63000
 30
        2.60000
 11
       18.14000
 21
       10.63000
 31
        0.00000
 12
       18.14000
 22
        7.56500
 32
        0.00000
 13
       18.14000
 23
        7.56500
 33
        2.60000
999
F1_CORE:F1_CORE_WALL46_INT
  0
3DFACE
  8
F1_CORE
 62
 43
 10
       15.98000
 20
        7.56500
 30
        2.60000
 11
       15.98000
 21
        7.56500
 31
        0.00000
 12
       15.98000
 22
        6.36500
 32
        0.00000
 13
       15.98000
 23
        6.36500
 33
        2.60000
999
F1_CORE:F1_CORE_WALL47_INT
  0
3DFACE
  8
F1_CORE
 62
 43
 10
        7.80000
 20
        6.73000
 30
        2.60000
 11
        7.80000
 21
        6.73000
 31
        0.00000
 12
        7.80000
 22
        5.60000
 32
        0.00000
 13
        7.80000
 23
        5.60000
 33
        2.60000
999
F1_CORE:F1_CORE_DOOR41
  0
3DFACE
  8
F1_CORE
 62
 45
 10
        7.80000
 20
        6.56500
 30
        2.10000
 11
        7.80000
 21
        6.56500
 31
        0.00000
 12
        7.80000
 22
        5.76500
 32
        0.00000
 13
        7.80000
 23
        5.76500
 33
        2.10000
999
F1_CORE:F1_CORE_WALL48_INT
  0
3DFACE
  8
F1_CORE
 62
 43
 10
        7.80000
 20
        5.60000
 30
        2.60000
 11
        7.80000
 21
        5.60000
 31
        0.00000
 12
        7.80000
 22
        4.47000
 32
        0.00000
 13
        7.80000
 23
        4.47000
 33
        2.60000
999
F1_CORE:F1_CORE_DOOR42
  0
3DFACE
  8
F1_CORE
 62
 45
 10
        7.80000
 20
        5.43500
 30
        2.10000
 11
        7.80000
 21
        5.43500
 31
        0.00000
 12
        7.80000
 22
        4.63500
 32
        0.00000
 13
        7.80000
 23
        4.63500
 33
        2.10000
999
F1_CORE:F1_CORE_WALL110_INT
  0
3DFACE
  8
F1_CORE
 62
 43
 10
       26.83000
 20
        4.83500
 30
        2.60000
 11
       26.83000
 21
        4.83500
 31
        0.00000
 12
       29.23000
 22
        4.83500
 32
        0.00000
 13
       29.23000
 23
        4.83500
 33
        2.60000
999
F1_CORE:F1_CORE_DOOR12
  0
3DFACE
  8
F1_CORE
 62
 45
 10
       26.93000
 20
        4.83500
 30
        2.10000
 11
       26.93000
 21
        4.83500
 31
        0.00000
 12
       27.73000
 22
        4.83500
 32
        0.00000
 13
       27.73000
 23
        4.83500
 33
        2.10000
999
F1_CORE:F1_CORE_WALL111_INT
  0
3DFACE
  8
F1_CORE
 62
 43
 10
       29.23000
 20
        4.47000
 30
        2.60000
 11
       29.23000
 21
        4.47000
 31
        0.00000
 12
       30.88000
 22
        4.47000
 32
        0.00000
 13
       30.88000
 23
        4.47000
 33
        2.60000
999
F1_CORE:F1_CORE_WALL310_INT
  0
3DFACE
  8
F1_CORE
 62
 43
 10
       11.85000
 20
        6.36500
 30
        2.60000
 11
       11.85000
 21
        6.36500
 31
        0.00000
 12
        9.45000
 22
        6.36500
 32
        0.00000
 13
        9.45000
 23
        6.36500
 33
        2.60000
999
F1_CORE:F1_CORE_DOOR32
  0
3DFACE
  8
F1_CORE
 62
 45
 10
       11.75000
 20
        6.36500
 30
        2.10000
 11
       11.75000
 21
        6.36500
 31
        0.00000
 12
       10.95000
 22
        6.36500
 32
        0.00000
 13
       10.95000
 23
        6.36500
 33
        2.10000
999
F1_CORE:F1_CORE_WALL311_INT
  0
3DFACE
  8
F1_CORE
 62
 43
 10
        9.45000
 20
        6.73000
 30
        2.60000
 11
        9.45000
 21
        6.73000
 31
        0.00000
 12
        7.80000
 22
        6.73000
 32
        0.00000
 13
        7.80000
 23
        6.73000
 33
        2.60000
999
F1_CORE:F1_CORE_FLOOR
  0
POLYLINE
  8
F1_CORE
 62
  8
 66
  1
 10
 0.0
 20
 0.0
 30
        0.00000
 70
   9
 40
 0.55
 41
 0.55
  0
VERTEX
  8
F1_CORE
 10
       30.88000
 20
        6.73000
 30
        0.00000
  0
VERTEX
  8
F1_CORE
 10
       30.88000
 20
        4.47000
 30
        0.00000
  0
VERTEX
  8
F1_CORE
 10
       29.23000
 20
        4.47000
 30
        0.00000
  0
VERTEX
  8
F1_CORE
 10
       29.23000
 20
        4.83500
 30
        0.00000
  0
VERTEX
  8
F1_CORE
 10
       20.54000
 20
        4.83500
 30
        0.00000
  0
VERTEX
  8
F1_CORE
 10
       20.54000
 20
        0.57000
 30
        0.00000
  0
VERTEX
  8
F1_CORE
 10
       18.14000
 20
        0.57000
 30
        0.00000
  0
VERTEX
  8
F1_CORE
 10
       18.14000
 20
        4.83500
 30
        0.00000
  0
VERTEX
  8
F1_CORE
 10
        9.45000
 20
        4.83500
 30
        0.00000
  0
VERTEX
  8
F1_CORE
 10
        9.45000
 20
        4.47000
 30
        0.00000
  0
VERTEX
  8
F1_CORE
 10
        7.80000
 20
        4.47000
 30
        0.00000
  0
VERTEX
  8
F1_CORE
 10
        7.80000
 20
        6.73000
 30
        0.00000
  0
VERTEX
  8
F1_CORE
 10
        9.45000
 20
        6.73000
 30
        0.00000
  0
VERTEX
  8
F1_CORE
 10
        9.45000
 20
        6.36500
 30
        0.00000
  0
VERTEX
  8
F1_CORE
 10
       15.98000
 20
        6.36500
 30
        0.00000
  0
VERTEX
  8
F1_CORE
 10
       15.98000
 20
        7.56500
 30
        0.00000
  0
VERTEX
  8
F1_CORE
 10
       18.14000
 20
        7.56500
 30
        0.00000
  0
VERTEX
  8
F1_CORE
 10
       18.14000
 20
       10.63000
 30
        0.00000
  0
VERTEX
  8
F1_CORE
 10
       20.54000
 20
       10.63000
 30
        0.00000
  0
VERTEX
  8
F1_CORE
 10
       20.54000
 20
        7.56500
 30
        0.00000
  0
VERTEX
  8
F1_CORE
 10
       22.70000
 20
        7.56500
 30
        0.00000
  0
VERTEX
  8
F1_CORE
 10
       22.70000
 20
        6.36500
 30
        0.00000
  0
VERTEX
  8
F1_CORE
 10
       29.23000
 20
        6.36500
 30
        0.00000
  0
VERTEX
  8
F1_CORE
 10
       29.23000
 20
        6.73000
 30
        0.00000
  0
SEQEND
  8
F1_CORE
999
F1_CORE:F1_CORE_ROOF
  0
POLYLINE
  8
F1_CORE
 62
 15
 66
  1
 10
 0.0
 20
 0.0
 30
        2.60000
 70
   9
 40
 0.55
 41
 0.55
  0
VERTEX
  8
F1_CORE
 10
        7.80000
 20
        6.73000
 30
        2.60000
  0
VERTEX
  8
F1_CORE
 10
        7.80000
 20
        4.47000
 30
        2.60000
  0
VERTEX
  8
F1_CORE
 10
        9.45000
 20
        4.47000
 30
        2.60000
  0
VERTEX
  8
F1_CORE
 10
        9.45000
 20
        4.83500
 30
        2.60000
  0
VERTEX
  8
F1_CORE
 10
       18.14000
 20
        4.83500
 30
        2.60000
  0
VERTEX
  8
F1_CORE
 10
       18.14000
 20
        0.57000
 30
        2.60000
  0
VERTEX
  8
F1_CORE
 10
       20.54000
 20
        0.57000
 30
        2.60000
  0
VERTEX
  8
F1_CORE
 10
       20.54000
 20
        4.83500
 30
        2.60000
  0
VERTEX
  8
F1_CORE
 10
       29.23000
 20
        4.83500
 30
        2.60000
  0
VERTEX
  8
F1_CORE
 10
       29.23000
 20
        4.47000
 30
        2.60000
  0
VERTEX
  8
F1_CORE
 10
       30.88000
 20
        4.47000
 30
        2.60000
  0
VERTEX
  8
F1_CORE
 10
       30.88000
 20
        6.73000
 30
        2.60000
  0
VERTEX
  8
F1_CORE
 10
       29.23000
 20
        6.73000
 30
        2.60000
  0
VERTEX
  8
F1_CORE
 10
       29.23000
 20
        6.36500
 30
        2.60000
  0
VERTEX
  8
F1_CORE
 10
       22.70000
 20
        6.36500
 30
        2.60000
  0
VERTEX
  8
F1_CORE
 10
       22.70000
 20
        7.56500
 30
        2.60000
  0
VERTEX
  8
F1_CORE
 10
       20.54000
 20
        7.56500
 30
        2.60000
  0
VERTEX
  8
F1_CORE
 10
       20.54000
 20
       10.63000
 30
        2.60000
  0
VERTEX
  8
F1_CORE
 10
       18.14000
 20
       10.63000
 30
        2.60000
  0
VERTEX
  8
F1_CORE
 10
       18.14000
 20
        7.56500
 30
        2.60000
  0
VERTEX
  8
F1_CORE
 10
       15.98000
 20
        7.56500
 30
        2.60000
  0
VERTEX
  8
F1_CORE
 10
       15.98000
 20
        6.36500
 30
        2.60000
  0
VERTEX
  8
F1_CORE
 10
        9.45000
 20
        6.36500
 30
        2.60000
  0
VERTEX
  8
F1_CORE
 10
        9.45000
 20
        6.73000
 30
        2.60000
  0
SEQEND
  8
F1_CORE
999
F1_CSE_BWC:F1_CSE_BWC_WALL1_EXT
  0
3DFACE
  8
F1_CSE_BWC
 62
 43
 10
       34.92000
 20
        0.00000
 30
        2.60000
 11
       34.92000
 21
        0.00000
 31
        0.00000
 12
       36.12000
 22
        0.00000
 32
        0.00000
 13
       36.12000
 23
        0.00000
 33
        2.60000
999
F1_CSE_BWC:F1_CSE_BWC_WINDOW1
  0
3DFACE
  8
F1_CSE_BWC
 62
143
 10
       35.22000
 20
        0.00000
 30
        2.10000
 11
       35.22000
 21
        0.00000
 31
        1.50000
 12
       35.82000
 22
        0.00000
 32
        1.50000
 13
       35.82000
 23
        0.00000
 33
        2.10000
999
F1_CSE_BWC:F1_CSE_BWC_WALL2_INT
  0
3DFACE
  8
F1_CSE_BWC
 62
 43
 10
       36.12000
 20
        0.00000
 30
        2.60000
 11
       36.12000
 21
        0.00000
 31
        0.00000
 12
       36.12000
 22
        2.03000
 32
        0.00000
 13
       36.12000
 23
        2.03000
 33
        2.60000
999
F1_CSE_BWC:F1_CSE_BWC_WALL3_INT
  0
3DFACE
  8
F1_CSE_BWC
 62
 43
 10
       36.12000
 20
        2.03000
 30
        2.60000
 11
       36.12000
 21
        2.03000
 31
        0.00000
 12
       34.92000
 22
        2.03000
 32
        0.00000
 13
       34.92000
 23
        2.03000
 33
        2.60000
999
F1_CSE_BWC:F1_CSE_BWC_DOOR3
  0
3DFACE
  8
F1_CSE_BWC
 62
 45
 10
       35.92000
 20
        2.03000
 30
        2.10000
 11
       35.92000
 21
        2.03000
 31
        0.00000
 12
       35.12000
 22
        2.03000
 32
        0.00000
 13
       35.12000
 23
        2.03000
 33
        2.10000
999
F1_CSE_BWC:F1_CSE_BWC_WALL4_INT
  0
3DFACE
  8
F1_CSE_BWC
 62
 43
 10
       34.92000
 20
        2.03000
 30
        2.60000
 11
       34.92000
 21
        2.03000
 31
        0.00000
 12
       34.92000
 22
        0.00000
 32
        0.00000
 13
       34.92000
 23
        0.00000
 33
        2.60000
999
F1_CSE_BWC:F1_CSE_BWC_FLOOR
  0
3DFACE
  8
F1_CSE_BWC
 62
  8
 10
       36.12000
 20
        2.03000
 30
        0.00000
 11
       36.12000
 21
        0.00000
 31
        0.00000
 12
       34.92000
 22
        0.00000
 32
        0.00000
 13
       34.92000
 23
        2.03000
 33
        0.00000
999
F1_CSE_BWC:F1_CSE_BWC_ROOF
  0
3DFACE
  8
F1_CSE_BWC
 62
 15
 10
       34.92000
 20
        2.03000
 30
        2.60000
 11
       34.92000
 21
        0.00000
 31
        2.60000
 12
       36.12000
 22
        0.00000
 32
        2.60000
 13
       36.12000
 23
        2.03000
 33
        2.60000
999
F1_CSE_DORM1:F1_CSE_DORM1_WALL1_EXT
  0
3DFACE
  8
F1_CSE_DORM1
 62
 43
 10
       36.12000
 20
        0.00000
 30
        2.60000
 11
       36.12000
 21
        0.00000
 31
        0.00000
 12
       38.68000
 22
        0.00000
 32
        0.00000
 13
       38.68000
 23
        0.00000
 33
        2.60000
999
F1_CSE_DORM1:F1_CSE_DORM1_WINDOW1
  0
3DFACE
  8
F1_CSE_DORM1
 62
143
 10
       36.80000
 20
        0.00000
 30
        2.30000
 11
       36.80000
 21
        0.00000
 31
        1.10000
 12
       38.00000
 22
        0.00000
 32
        1.10000
 13
       38.00000
 23
        0.00000
 33
        2.30000
999
F1_CSE_DORM1:F1_CSE_DORM1_WALL2_EXT
  0
3DFACE
  8
F1_CSE_DORM1
 62
 43
 10
       38.68000
 20
        0.00000
 30
        2.60000
 11
       38.68000
 21
        0.00000
 31
        0.00000
 12
       38.68000
 22
        3.10000
 32
        0.00000
 13
       38.68000
 23
        3.10000
 33
        2.60000
999
F1_CSE_DORM1:F1_CSE_DORM1_WALL31_EXT
  0
3DFACE
  8
F1_CSE_DORM1
 62
 43
 10
       38.68000
 20
        3.10000
 30
        2.60000
 11
       38.68000
 21
        3.10000
 31
        0.00000
 12
       36.95000
 22
        3.10000
 32
        0.00000
 13
       36.95000
 23
        3.10000
 33
        2.60000
999
F1_CSE_DORM1:F1_CSE_DORM1_WALL32_INT
  0
3DFACE
  8
F1_CSE_DORM1
 62
 43
 10
       36.95000
 20
        3.10000
 30
        2.60000
 11
       36.95000
 21
        3.10000
 31
        0.00000
 12
       36.12000
 22
        3.10000
 32
        0.00000
 13
       36.12000
 23
        3.10000
 33
        2.60000
999
F1_CSE_DORM1:F1_CSE_DORM1_WALL41_INT
  0
3DFACE
  8
F1_CSE_DORM1
 62
 43
 10
       36.12000
 20
        3.10000
 30
        2.60000
 11
       36.12000
 21
        3.10000
 31
        0.00000
 12
       36.12000
 22
        2.03000
 32
        0.00000
 13
       36.12000
 23
        2.03000
 33
        2.60000
999
F1_CSE_DORM1:F1_CSE_DORM1_DOOR4
  0
3DFACE
  8
F1_CSE_DORM1
 62
 45
 10
       36.12000
 20
        2.96500
 30
        2.10000
 11
       36.12000
 21
        2.96500
 31
        0.00000
 12
       36.12000
 22
        2.16500
 32
        0.00000
 13
       36.12000
 23
        2.16500
 33
        2.10000
999
F1_CSE_DORM1:F1_CSE_DORM1_WALL42_INT
  0
3DFACE
  8
F1_CSE_DORM1
 62
 43
 10
       36.12000
 20
        2.03000
 30
        2.60000
 11
       36.12000
 21
        2.03000
 31
        0.00000
 12
       36.12000
 22
        0.00000
 32
        0.00000
 13
       36.12000
 23
        0.00000
 33
        2.60000
999
F1_CSE_DORM1:F1_CSE_DORM1_FLOOR
  0
3DFACE
  8
F1_CSE_DORM1
 62
  8
 10
       38.68000
 20
        3.10000
 30
        0.00000
 11
       38.68000
 21
        0.00000
 31
        0.00000
 12
       36.12000
 22
        0.00000
 32
        0.00000
 13
       36.12000
 23
        3.10000
 33
        0.00000
999
F1_CSE_DORM1:F1_CSE_DORM1_ROOF
  0
3DFACE
  8
F1_CSE_DORM1
 62
 15
 10
       36.12000
 20
        3.10000
 30
        2.60000
 11
       36.12000
 21
        0.00000
 31
        2.60000
 12
       38.68000
 22
        0.00000
 32
        2.60000
 13
       38.68000
 23
        3.10000
 33
        2.60000
999
F1_CSE_DORM2:F1_CSE_DORM2_WALL1_EXT
  0
3DFACE
  8
F1_CSE_DORM2
 62
 43
 10
       32.53000
 20
        0.00000
 30
        2.60000
 11
       32.53000
 21
        0.00000
 31
        0.00000
 12
       34.92000
 22
        0.00000
 32
        0.00000
 13
       34.92000
 23
        0.00000
 33
        2.60000
999
F1_CSE_DORM2:F1_CSE_DORM2_WINDOW1
  0
3DFACE
  8
F1_CSE_DORM2
 62
143
 10
       33.12500
 20
        0.00000
 30
        2.30000
 11
       33.12500
 21
        0.00000
 31
        1.10000
 12
       34.32500
 22
        0.00000
 32
        1.10000
 13
       34.32500
 23
        0.00000
 33
        2.30000
999
F1_CSE_DORM2:F1_CSE_DORM2_WALL3_INT
  0
3DFACE
  8
F1_CSE_DORM2
 62
 43
 10
       34.92000
 20
        3.10000
 30
        2.60000
 11
       34.92000
 21
        3.10000
 31
        0.00000
 12
       32.53000
 22
        3.10000
 32
        0.00000
 13
       32.53000
 23
        3.10000
 33
        2.60000
999
F1_CSE_DORM2:F1_CSE_DORM2_WALL21_INT
  0
3DFACE
  8
F1_CSE_DORM2
 62
 43
 10
       34.92000
 20
        0.00000
 30
        2.60000
 11
       34.92000
 21
        0.00000
 31
        0.00000
 12
       34.92000
 22
        2.03000
 32
        0.00000
 13
       34.92000
 23
        2.03000
 33
        2.60000
999
F1_CSE_DORM2:F1_CSE_DORM2_WALL22_INT
  0
3DFACE
  8
F1_CSE_DORM2
 62
 43
 10
       34.92000
 20
        2.03000
 30
        2.60000
 11
       34.92000
 21
        2.03000
 31
        0.00000
 12
       34.92000
 22
        3.10000
 32
        0.00000
 13
       34.92000
 23
        3.10000
 33
        2.60000
999
F1_CSE_DORM2:F1_CSE_DORM2_DOOR2
  0
3DFACE
  8
F1_CSE_DORM2
 62
 45
 10
       34.92000
 20
        2.16500
 30
        2.10000
 11
       34.92000
 21
        2.16500
 31
        0.00000
 12
       34.92000
 22
        2.96500
 32
        0.00000
 13
       34.92000
 23
        2.96500
 33
        2.10000
999
F1_CSE_DORM2:F1_CSE_DORM2_WALL41_INT
  0
3DFACE
  8
F1_CSE_DORM2
 62
 43
 10
       32.53000
 20
        3.10000
 30
        2.60000
 11
       32.53000
 21
        3.10000
 31
        0.00000
 12
       32.53000
 22
        0.57000
 32
        0.00000
 13
       32.53000
 23
        0.57000
 33
        2.60000
999
F1_CSE_DORM2:F1_CSE_DORM2_WALL42_EXT
  0
3DFACE
  8
F1_CSE_DORM2
 62
 43
 10
       32.53000
 20
        0.57000
 30
        2.60000
 11
       32.53000
 21
        0.57000
 31
        0.00000
 12
       32.53000
 22
        0.00000
 32
        0.00000
 13
       32.53000
 23
        0.00000
 33
        2.60000
999
F1_CSE_DORM2:F1_CSE_DORM2_FLOOR
  0
3DFACE
  8
F1_CSE_DORM2
 62
  8
 10
       34.92000
 20
        3.10000
 30
        0.00000
 11
       34.92000
 21
        0.00000
 31
        0.00000
 12
       32.53000
 22
        0.00000
 32
        0.00000
 13
       32.53000
 23
        3.10000
 33
        0.00000
999
F1_CSE_DORM2:F1_CSE_DORM2_ROOF
  0
3DFACE
  8
F1_CSE_DORM2
 62
 15
 10
       32.53000
 20
        3.10000
 30
        2.60000
 11
       32.53000
 21
        0.00000
 31
        2.60000
 12
       34.92000
 22
        0.00000
 32
        2.60000
 13
       34.92000
 23
        3.10000
 33
        2.60000
999
F1_CSE_LIV:F1_CSE_LIV_WALL3_INT
  0
3DFACE
  8
F1_CSE_LIV
 62
 43
 10
       36.95000
 20
        5.60000
 30
        2.60000
 11
       36.95000
 21
        5.60000
 31
        0.00000
 12
       30.88000
 22
        5.60000
 32
        0.00000
 13
       30.88000
 23
        5.60000
 33
        2.60000
999
F1_CSE_LIV:F1_CSE_LIV_WALL11_EXT
  0
3DFACE
  8
F1_CSE_LIV
 62
 43
 10
       30.88000
 20
        0.57000
 30
        2.60000
 11
       30.88000
 21
        0.57000
 31
        0.00000
 12
       32.53000
 22
        0.57000
 32
        0.00000
 13
       32.53000
 23
        0.57000
 33
        2.60000
999
F1_CSE_LIV:F1_CSE_LIV_WINDOW1
  0
3DFACE
  8
F1_CSE_LIV
 62
143
 10
       31.10500
 20
        0.57000
 30
        2.30000
 11
       31.10500
 21
        0.57000
 31
        1.10000
 12
       32.30500
 22
        0.57000
 32
        1.10000
 13
       32.30500
 23
        0.57000
 33
        2.30000
999
F1_CSE_LIV:F1_CSE_LIV_WALL12_INT
  0
3DFACE
  8
F1_CSE_LIV
 62
 43
 10
       32.53000
 20
        3.10000
 30
        2.60000
 11
       32.53000
 21
        3.10000
 31
        0.00000
 12
       34.92000
 22
        3.10000
 32
        0.00000
 13
       34.92000
 23
        3.10000
 33
        2.60000
999
F1_CSE_LIV:F1_CSE_LIV_WALL13_INT
  0
3DFACE
  8
F1_CSE_LIV
 62
 43
 10
       34.92000
 20
        2.03000
 30
        2.60000
 11
       34.92000
 21
        2.03000
 31
        0.00000
 12
       36.12000
 22
        2.03000
 32
        0.00000
 13
       36.12000
 23
        2.03000
 33
        2.60000
999
F1_CSE_LIV:F1_CSE_LIV_DOOR1
  0
3DFACE
  8
F1_CSE_LIV
 62
 45
 10
       35.12000
 20
        2.03000
 30
        2.10000
 11
       35.12000
 21
        2.03000
 31
        0.00000
 12
       35.92000
 22
        2.03000
 32
        0.00000
 13
       35.92000
 23
        2.03000
 33
        2.10000
999
F1_CSE_LIV:F1_CSE_LIV_WALL14_INT
  0
3DFACE
  8
F1_CSE_LIV
 62
 43
 10
       36.12000
 20
        3.10000
 30
        2.60000
 11
       36.12000
 21
        3.10000
 31
        0.00000
 12
       36.95000
 22
        3.10000
 32
        0.00000
 13
       36.95000
 23
        3.10000
 33
        2.60000
999
F1_CSE_LIV:F1_CSE_LIV_WALL21_INT
  0
3DFACE
  8
F1_CSE_LIV
 62
 43
 10
       32.53000
 20
        0.57000
 30
        2.60000
 11
       32.53000
 21
        0.57000
 31
        0.00000
 12
       32.53000
 22
        3.10000
 32
        0.00000
 13
       32.53000
 23
        3.10000
 33
        2.60000
999
F1_CSE_LIV:F1_CSE_LIV_WALL22_INT
  0
3DFACE
  8
F1_CSE_LIV
 62
 43
 10
       36.12000
 20
        2.03000
 30
        2.60000
 11
       36.12000
 21
        2.03000
 31
        0.00000
 12
       36.12000
 22
        3.10000
 32
        0.00000
 13
       36.12000
 23
        3.10000
 33
        2.60000
999
F1_CSE_LIV:F1_CSE_LIV_DOOR2
  0
3DFACE
  8
F1_CSE_LIV
 62
 45
 10
       36.12000
 20
        2.16500
 30
        2.10000
 11
       36.12000
 21
        2.16500
 31
        0.00000
 12
       36.12000
 22
        2.96500
 32
        0.00000
 13
       36.12000
 23
        2.96500
 33
        2.10000
999
F1_CSE_LIV:F1_CSE_LIV_WALL23_EXT
  0
3DFACE
  8
F1_CSE_LIV
 62
 43
 10
       36.95000
 20
        3.10000
 30
        2.60000
 11
       36.95000
 21
        3.10000
 31
        0.00000
 12
       36.95000
 22
        5.60000
 32
        0.00000
 13
       36.95000
 23
        5.60000
 33
        2.60000
999
F1_CSE_LIV:F1_CSE_LIV_WINDOW2
  0
3DFACE
  8
F1_CSE_LIV
 62
143
 10
       36.95000
 20
        3.75000
 30
        2.30000
 11
       36.95000
 21
        3.75000
 31
        1.10000
 12
       36.95000
 22
        4.95000
 32
        1.10000
 13
       36.95000
 23
        4.95000
 33
        2.30000
999
F1_CSE_LIV:F1_CSE_LIV_WALL41_INT
  0
3DFACE
  8
F1_CSE_LIV
 62
 43
 10
       34.92000
 20
        3.10000
 30
        2.60000
 11
       34.92000
 21
        3.10000
 31
        0.00000
 12
       34.92000
 22
        2.03000
 32
        0.00000
 13
       34.92000
 23
        2.03000
 33
        2.60000
999
F1_CSE_LIV:F1_CSE_LIV_DOOR41
  0
3DFACE
  8
F1_CSE_LIV
 62
 45
 10
       34.92000
 20
        2.96500
 30
        2.10000
 11
       34.92000
 21
        2.96500
 31
        0.00000
 12
       34.92000
 22
        2.16500
 32
        0.00000
 13
       34.92000
 23
        2.16500
 33
        2.10000
999
F1_CSE_LIV:F1_CSE_LIV_WALL42_INT
  0
3DFACE
  8
F1_CSE_LIV
 62
 43
 10
       30.88000
 20
        5.60000
 30
        2.60000
 11
       30.88000
 21
        5.60000
 31
        0.00000
 12
       30.88000
 22
        4.47000
 32
        0.00000
 13
       30.88000
 23
        4.47000
 33
        2.60000
999
F1_CSE_LIV:F1_CSE_LIV_DOOR42
  0
3DFACE
  8
F1_CSE_LIV
 62
 45
 10
       30.88000
 20
        5.43500
 30
        2.10000
 11
       30.88000
 21
        5.43500
 31
        0.00000
 12
       30.88000
 22
        4.63500
 32
        0.00000
 13
       30.88000
 23
        4.63500
 33
        2.10000
999
F1_CSE_LIV:F1_CSE_LIV_WALL43_INT
  0
3DFACE
  8
F1_CSE_LIV
 62
 43
 10
       30.88000
 20
        4.47000
 30
        2.60000
 11
       30.88000
 21
        4.47000
 31
        0.00000
 12
       30.88000
 22
        0.57000
 32
        0.00000
 13
       30.88000
 23
        0.57000
 33
        2.60000
999
F1_CSE_LIV:F1_CSE_LIV_FLOOR
  0
POLYLINE
  8
F1_CSE_LIV
 62
  8
 66
  1
 10
 0.0
 20
 0.0
 30
        0.00000
 70
   9
 40
 0.55
 41
 0.55
  0
VERTEX
  8
F1_CSE_LIV
 10
       36.95000
 20
        5.60000
 30
        0.00000
  0
VERTEX
  8
F1_CSE_LIV
 10
       36.95000
 20
        3.10000
 30
        0.00000
  0
VERTEX
  8
F1_CSE_LIV
 10
       36.12000
 20
        3.10000
 30
        0.00000
  0
VERTEX
  8
F1_CSE_LIV
 10
       36.12000
 20
        2.03000
 30
        0.00000
  0
VERTEX
  8
F1_CSE_LIV
 10
       34.92000
 20
        2.03000
 30
        0.00000
  0
VERTEX
  8
F1_CSE_LIV
 10
       34.92000
 20
        3.10000
 30
        0.00000
  0
VERTEX
  8
F1_CSE_LIV
 10
       32.53000
 20
        3.10000
 30
        0.00000
  0
VERTEX
  8
F1_CSE_LIV
 10
       32.53000
 20
        0.57000
 30
        0.00000
  0
VERTEX
  8
F1_CSE_LIV
 10
       30.88000
 20
        0.57000
 30
        0.00000
  0
VERTEX
  8
F1_CSE_LIV
 10
       30.88000
 20
        5.60000
 30
        0.00000
  0
SEQEND
  8
F1_CSE_LIV
999
F1_CSE_LIV:F1_CSE_LIV_ROOF
  0
POLYLINE
  8
F1_CSE_LIV
 62
 15
 66
  1
 10
 0.0
 20
 0.0
 30
        2.60000
 70
   9
 40
 0.55
 41
 0.55
  0
VERTEX
  8
F1_CSE_LIV
 10
       30.88000
 20
        5.60000
 30
        2.60000
  0
VERTEX
  8
F1_CSE_LIV
 10
       30.88000
 20
        0.57000
 30
        2.60000
  0
VERTEX
  8
F1_CSE_LIV
 10
       32.53000
 20
        0.57000
 30
        2.60000
  0
VERTEX
  8
F1_CSE_LIV
 10
       32.53000
 20
        3.10000
 30
        2.60000
  0
VERTEX
  8
F1_CSE_LIV
 10
       34.92000
 20
        3.10000
 30
        2.60000
  0
VERTEX
  8
F1_CSE_LIV
 10
       34.92000
 20
        2.03000
 30
        2.60000
  0
VERTEX
  8
F1_CSE_LIV
 10
       36.12000
 20
        2.03000
 30
        2.60000
  0
VERTEX
  8
F1_CSE_LIV
 10
       36.12000
 20
        3.10000
 30
        2.60000
  0
VERTEX
  8
F1_CSE_LIV
 10
       36.95000
 20
        3.10000
 30
        2.60000
  0
VERTEX
  8
F1_CSE_LIV
 10
       36.95000
 20
        5.60000
 30
        2.60000
  0
SEQEND
  8
F1_CSE_LIV
999
F1_CSW_BWC:F1_CSW_BWC_WALL1_EXT
  0
3DFACE
  8
F1_CSW_BWC
 62
 43
 10
        2.56000
 20
        0.00000
 30
        2.60000
 11
        2.56000
 21
        0.00000
 31
        0.00000
 12
        3.76000
 22
        0.00000
 32
        0.00000
 13
        3.76000
 23
        0.00000
 33
        2.60000
999
F1_CSW_BWC:F1_CSW_BWC_WINDOW1
  0
3DFACE
  8
F1_CSW_BWC
 62
143
 10
        2.86000
 20
        0.00000
 30
        2.10000
 11
        2.86000
 21
        0.00000
 31
        1.50000
 12
        3.46000
 22
        0.00000
 32
        1.50000
 13
        3.46000
 23
        0.00000
 33
        2.10000
999
F1_CSW_BWC:F1_CSW_BWC_WALL2_INT
  0
3DFACE
  8
F1_CSW_BWC
 62
 43
 10
        3.76000
 20
        0.00000
 30
        2.60000
 11
        3.76000
 21
        0.00000
 31
        0.00000
 12
        3.76000
 22
        2.03000
 32
        0.00000
 13
        3.76000
 23
        2.03000
 33
        2.60000
999
F1_CSW_BWC:F1_CSW_BWC_WALL3_INT
  0
3DFACE
  8
F1_CSW_BWC
 62
 43
 10
        3.76000
 20
        2.03000
 30
        2.60000
 11
        3.76000
 21
        2.03000
 31
        0.00000
 12
        2.56000
 22
        2.03000
 32
        0.00000
 13
        2.56000
 23
        2.03000
 33
        2.60000
999
F1_CSW_BWC:F1_CSW_BWC_DOOR3
  0
3DFACE
  8
F1_CSW_BWC
 62
 45
 10
        3.56000
 20
        2.03000
 30
        2.10000
 11
        3.56000
 21
        2.03000
 31
        0.00000
 12
        2.76000
 22
        2.03000
 32
        0.00000
 13
        2.76000
 23
        2.03000
 33
        2.10000
999
F1_CSW_BWC:F1_CSW_BWC_WALL4_INT
  0
3DFACE
  8
F1_CSW_BWC
 62
 43
 10
        2.56000
 20
        2.03000
 30
        2.60000
 11
        2.56000
 21
        2.03000
 31
        0.00000
 12
        2.56000
 22
        0.00000
 32
        0.00000
 13
        2.56000
 23
        0.00000
 33
        2.60000
999
F1_CSW_BWC:F1_CSW_BWC_FLOOR
  0
3DFACE
  8
F1_CSW_BWC
 62
  8
 10
        3.76000
 20
        2.03000
 30
        0.00000
 11
        3.76000
 21
        0.00000
 31
        0.00000
 12
        2.56000
 22
        0.00000
 32
        0.00000
 13
        2.56000
 23
        2.03000
 33
        0.00000
999
F1_CSW_BWC:F1_CSW_BWC_ROOF
  0
3DFACE
  8
F1_CSW_BWC
 62
 15
 10
        2.56000
 20
        2.03000
 30
        2.60000
 11
        2.56000
 21
        0.00000
 31
        2.60000
 12
        3.76000
 22
        0.00000
 32
        2.60000
 13
        3.76000
 23
        2.03000
 33
        2.60000
999
F1_CSW_DORM1:F1_CSW_DORM1_WALL1_EXT
  0
3DFACE
  8
F1_CSW_DORM1
 62
 43
 10
        0.00000
 20
        0.00000
 30
        2.60000
 11
        0.00000
 21
        0.00000
 31
        0.00000
 12
        2.56000
 22
        0.00000
 32
        0.00000
 13
        2.56000
 23
        0.00000
 33
        2.60000
999
F1_CSW_DORM1:F1_CSW_DORM1_WINDOW1
  0
3DFACE
  8
F1_CSW_DORM1
 62
143
 10
        0.68000
 20
        0.00000
 30
        2.30000
 11
        0.68000
 21
        0.00000
 31
        1.10000
 12
        1.88000
 22
        0.00000
 32
        1.10000
 13
        1.88000
 23
        0.00000
 33
        2.30000
999
F1_CSW_DORM1:F1_CSW_DORM1_WALL4_EXT
  0
3DFACE
  8
F1_CSW_DORM1
 62
 43
 10
        0.00000
 20
        3.10000
 30
        2.60000
 11
        0.00000
 21
        3.10000
 31
        0.00000
 12
        0.00000
 22
        0.00000
 32
        0.00000
 13
        0.00000
 23
        0.00000
 33
        2.60000
999
F1_CSW_DORM1:F1_CSW_DORM1_WALL21_INT
  0
3DFACE
  8
F1_CSW_DORM1
 62
 43
 10
        2.56000
 20
        0.00000
 30
        2.60000
 11
        2.56000
 21
        0.00000
 31
        0.00000
 12
        2.56000
 22
        2.03000
 32
        0.00000
 13
        2.56000
 23
        2.03000
 33
        2.60000
999
F1_CSW_DORM1:F1_CSW_DORM1_WALL22_INT
  0
3DFACE
  8
F1_CSW_DORM1
 62
 43
 10
        2.56000
 20
        2.03000
 30
        2.60000
 11
        2.56000
 21
        2.03000
 31
        0.00000
 12
        2.56000
 22
        3.10000
 32
        0.00000
 13
        2.56000
 23
        3.10000
 33
        2.60000
999
F1_CSW_DORM1:F1_CSW_DORM1_DOOR2
  0
3DFACE
  8
F1_CSW_DORM1
 62
 45
 10
        2.56000
 20
        2.16500
 30
        2.10000
 11
        2.56000
 21
        2.16500
 31
        0.00000
 12
        2.56000
 22
        2.96500
 32
        0.00000
 13
        2.56000
 23
        2.96500
 33
        2.10000
999
F1_CSW_DORM1:F1_CSW_DORM1_WALL31_INT
  0
3DFACE
  8
F1_CSW_DORM1
 62
 43
 10
        2.56000
 20
        3.10000
 30
        2.60000
 11
        2.56000
 21
        3.10000
 31
        0.00000
 12
        1.73000
 22
        3.10000
 32
        0.00000
 13
        1.73000
 23
        3.10000
 33
        2.60000
999
F1_CSW_DORM1:F1_CSW_DORM1_WALL32_EXT
  0
3DFACE
  8
F1_CSW_DORM1
 62
 43
 10
        1.73000
 20
        3.10000
 30
        2.60000
 11
        1.73000
 21
        3.10000
 31
        0.00000
 12
        0.00000
 22
        3.10000
 32
        0.00000
 13
        0.00000
 23
        3.10000
 33
        2.60000
999
F1_CSW_DORM1:F1_CSW_DORM1_FLOOR
  0
3DFACE
  8
F1_CSW_DORM1
 62
  8
 10
        2.56000
 20
        3.10000
 30
        0.00000
 11
        2.56000
 21
        0.00000
 31
        0.00000
 12
        0.00000
 22
        0.00000
 32
        0.00000
 13
        0.00000
 23
        3.10000
 33
        0.00000
999
F1_CSW_DORM1:F1_CSW_DORM1_ROOF
  0
3DFACE
  8
F1_CSW_DORM1
 62
 15
 10
        0.00000
 20
        3.10000
 30
        2.60000
 11
        0.00000
 21
        0.00000
 31
        2.60000
 12
        2.56000
 22
        0.00000
 32
        2.60000
 13
        2.56000
 23
        3.10000
 33
        2.60000
999
F1_CSW_DORM2:F1_CSW_DORM2_WALL1_EXT
  0
3DFACE
  8
F1_CSW_DORM2
 62
 43
 10
        3.76000
 20
        0.00000
 30
        2.60000
 11
        3.76000
 21
        0.00000
 31
        0.00000
 12
        6.15000
 22
        0.00000
 32
        0.00000
 13
        6.15000
 23
        0.00000
 33
        2.60000
999
F1_CSW_DORM2:F1_CSW_DORM2_WINDOW1
  0
3DFACE
  8
F1_CSW_DORM2
 62
143
 10
        4.35500
 20
        0.00000
 30
        2.30000
 11
        4.35500
 21
        0.00000
 31
        1.10000
 12
        5.55500
 22
        0.00000
 32
        1.10000
 13
        5.55500
 23
        0.00000
 33
        2.30000
999
F1_CSW_DORM2:F1_CSW_DORM2_WALL3_INT
  0
3DFACE
  8
F1_CSW_DORM2
 62
 43
 10
        6.15000
 20
        3.10000
 30
        2.60000
 11
        6.15000
 21
        3.10000
[...]
 20
        0.57000
 30
       13.00000
  0
VERTEX
  8
F5_MSE_LIV
 10
       30.88000
 20
        0.57000
 30
       13.00000
  0
VERTEX
  8
F5_MSE_LIV
 10
       30.88000
 20
        4.47000
 30
       13.00000
  0
VERTEX
  8
F5_MSE_LIV
 10
       29.23000
 20
        4.47000
 30
       13.00000
  0
VERTEX
  8
F5_MSE_LIV
 10
       29.23000
 20
        4.83500
 30
       13.00000
  0
VERTEX
  8
F5_MSE_LIV
 10
       26.83000
 20
        4.83500
 30
       13.00000
  0
VERTEX
  8
F5_MSE_LIV
 10
       26.83000
 20
        3.63500
 30
       13.00000
  0
SEQEND
  8
F5_MSE_LIV
999
F5_MSW_BWC1:F5_MSW_BWC1_WALL1_INT
  0
3DFACE
  8
F5_MSW_BWC1
 62
 43
 10
       15.98000
 20
        3.63500
 30
       13.00000
 11
       15.98000
 21
        3.63500
 31
       10.40000
 12
       18.14000
 22
        3.63500
 32
       10.40000
 13
       18.14000
 23
        3.63500
 33
       13.00000
999
F5_MSW_BWC1:F5_MSW_BWC1_DOOR1
  0
3DFACE
  8
F5_MSW_BWC1
 62
 45
 10
       16.08000
 20
        3.63500
 30
       12.50000
 11
       16.08000
 21
        3.63500
 31
       10.40000
 12
       16.88000
 22
        3.63500
 32
       10.40000
 13
       16.88000
 23
        3.63500
 33
       12.50000
999
F5_MSW_BWC1:F5_MSW_BWC1_WALL2_INT
  0
3DFACE
  8
F5_MSW_BWC1
 62
 43
 10
       18.14000
 20
        3.63500
 30
       13.00000
 11
       18.14000
 21
        3.63500
 31
       10.40000
 12
       18.14000
 22
        4.83500
 32
       10.40000
 13
       18.14000
 23
        4.83500
 33
       13.00000
999
F5_MSW_BWC1:F5_MSW_BWC1_WALL3_INT
  0
3DFACE
  8
F5_MSW_BWC1
 62
 43
 10
       18.14000
 20
        4.83500
 30
       13.00000
 11
       18.14000
 21
        4.83500
 31
       10.40000
 12
       15.98000
 22
        4.83500
 32
       10.40000
 13
       15.98000
 23
        4.83500
 33
       13.00000
999
F5_MSW_BWC1:F5_MSW_BWC1_WALL4_INT
  0
3DFACE
  8
F5_MSW_BWC1
 62
 43
 10
       15.98000
 20
        4.83500
 30
       13.00000
 11
       15.98000
 21
        4.83500
 31
       10.40000
 12
       15.98000
 22
        3.63500
 32
       10.40000
 13
       15.98000
 23
        3.63500
 33
       13.00000
999
F5_MSW_BWC1:F5_MSW_BWC1_WINDOW4
  0
3DFACE
  8
F5_MSW_BWC1
 62
143
 10
       15.98000
 20
        4.53500
 30
       12.50000
 11
       15.98000
 21
        4.53500
 31
       11.90000
 12
       15.98000
 22
        3.93500
 32
       11.90000
 13
       15.98000
 23
        3.93500
 33
       12.50000
999
F5_MSW_BWC1:F5_MSW_BWC1_FLOOR
  0
3DFACE
  8
F5_MSW_BWC1
 62
  8
 10
       18.14000
 20
        4.83500
 30
       10.40000
 11
       18.14000
 21
        3.63500
 31
       10.40000
 12
       15.98000
 22
        3.63500
 32
       10.40000
 13
       15.98000
 23
        4.83500
 33
       10.40000
999
F5_MSW_BWC1:F5_MSW_BWC1_ROOF
  0
3DFACE
  8
F5_MSW_BWC1
 62
 15
 10
       15.98000
 20
        4.83500
 30
       13.00000
 11
       15.98000
 21
        3.63500
 31
       13.00000
 12
       18.14000
 22
        3.63500
 32
       13.00000
 13
       18.14000
 23
        4.83500
 33
       13.00000
999
F5_MSW_BWC2:F5_MSW_BWC2_WALL1_INT
  0
3DFACE
  8
F5_MSW_BWC2
 62
 43
 10
       11.85000
 20
        3.63500
 30
       13.00000
 11
       11.85000
 21
        3.63500
 31
       10.40000
 12
       14.10000
 22
        3.63500
 32
       10.40000
 13
       14.10000
 23
        3.63500
 33
       13.00000
999
F5_MSW_BWC2:F5_MSW_BWC2_DOOR1
  0
3DFACE
  8
F5_MSW_BWC2
 62
 45
 10
       11.95000
 20
        3.63500
 30
       12.50000
 11
       11.95000
 21
        3.63500
 31
       10.40000
 12
       12.75000
 22
        3.63500
 32
       10.40000
 13
       12.75000
 23
        3.63500
 33
       12.50000
999
F5_MSW_BWC2:F5_MSW_BWC2_WALL2_INT
  0
3DFACE
  8
F5_MSW_BWC2
 62
 43
 10
       14.10000
 20
        3.63500
 30
       13.00000
 11
       14.10000
 21
        3.63500
 31
       10.40000
 12
       14.10000
 22
        4.83500
 32
       10.40000
 13
       14.10000
 23
        4.83500
 33
       13.00000
999
F5_MSW_BWC2:F5_MSW_BWC2_WINDOW2
  0
3DFACE
  8
F5_MSW_BWC2
 62
143
 10
       14.10000
 20
        3.93500
 30
       12.50000
 11
       14.10000
 21
        3.93500
 31
       11.90000
 12
       14.10000
 22
        4.53500
 32
       11.90000
 13
       14.10000
 23
        4.53500
 33
       12.50000
999
F5_MSW_BWC2:F5_MSW_BWC2_WALL3_INT
  0
3DFACE
  8
F5_MSW_BWC2
 62
 43
 10
       14.10000
 20
        4.83500
 30
       13.00000
 11
       14.10000
 21
        4.83500
 31
       10.40000
 12
       11.85000
 22
        4.83500
 32
       10.40000
 13
       11.85000
 23
        4.83500
 33
       13.00000
999
F5_MSW_BWC2:F5_MSW_BWC2_WALL4_INT
  0
3DFACE
  8
F5_MSW_BWC2
 62
 43
 10
       11.85000
 20
        4.83500
 30
       13.00000
 11
       11.85000
 21
        4.83500
 31
       10.40000
 12
       11.85000
 22
        3.63500
 32
       10.40000
 13
       11.85000
 23
        3.63500
 33
       13.00000
999
F5_MSW_BWC2:F5_MSW_BWC2_FLOOR
  0
3DFACE
  8
F5_MSW_BWC2
 62
  8
 10
       14.10000
 20
        4.83500
 30
       10.40000
 11
       14.10000
 21
        3.63500
 31
       10.40000
 12
       11.85000
 22
        3.63500
 32
       10.40000
 13
       11.85000
 23
        4.83500
 33
       10.40000
999
F5_MSW_BWC2:F5_MSW_BWC2_ROOF
  0
3DFACE
  8
F5_MSW_BWC2
 62
 15
 10
       11.85000
 20
        4.83500
 30
       13.00000
 11
       11.85000
 21
        3.63500
 31
       13.00000
 12
       14.10000
 22
        3.63500
 32
       13.00000
 13
       14.10000
 23
        4.83500
 33
       13.00000
999
F5_MSW_DORM1:F5_MSW_DORM1_WALL2_INT
  0
3DFACE
  8
F5_MSW_DORM1
 62
 43
 10
       18.14000
 20
        0.57000
 30
       13.00000
 11
       18.14000
 21
        0.57000
 31
       10.40000
 12
       18.14000
 22
        3.63500
 32
       10.40000
 13
       18.14000
 23
        3.63500
 33
       13.00000
999
F5_MSW_DORM1:F5_MSW_DORM1_WALL11_INT
  0
3DFACE
  8
F5_MSW_DORM1
 62
 43
 10
       14.10000
 20
        2.80500
 30
       13.00000
 11
       14.10000
 21
        2.80500
 31
       10.40000
 12
       15.23000
 22
        2.80500
 32
       10.40000
 13
       15.23000
 23
        2.80500
 33
       13.00000
999
F5_MSW_DORM1:F5_MSW_DORM1_WALL12_EXT
  0
3DFACE
  8
F5_MSW_DORM1
 62
 43
 10
       15.23000
 20
        0.57000
 30
       13.00000
 11
       15.23000
 21
        0.57000
 31
       10.40000
 12
       18.14000
 22
        0.57000
 32
       10.40000
 13
       18.14000
 23
        0.57000
 33
       13.00000
999
F5_MSW_DORM1:F5_MSW_DORM1_WINDOW1
  0
3DFACE
  8
F5_MSW_DORM1
 62
143
 10
       16.08500
 20
        0.57000
 30
       12.70000
 11
       16.08500
 21
        0.57000
 31
       11.50000
 12
       17.28500
 22
        0.57000
 32
       11.50000
 13
       17.28500
 23
        0.57000
 33
       12.70000
999
F5_MSW_DORM1:F5_MSW_DORM1_WALL31_INT
  0
3DFACE
  8
F5_MSW_DORM1
 62
 43
 10
       18.14000
 20
        3.63500
 30
       13.00000
 11
       18.14000
 21
        3.63500
 31
       10.40000
 12
       15.98000
 22
        3.63500
 32
       10.40000
 13
       15.98000
 23
        3.63500
 33
       13.00000
999
F5_MSW_DORM1:F5_MSW_DORM1_DOOR3
  0
3DFACE
  8
F5_MSW_DORM1
 62
 45
 10
       16.88000
 20
        3.63500
 30
       12.50000
 11
       16.88000
 21
        3.63500
 31
       10.40000
 12
       16.08000
 22
        3.63500
 32
       10.40000
 13
       16.08000
 23
        3.63500
 33
       12.50000
999
F5_MSW_DORM1:F5_MSW_DORM1_WALL32_INT
  0
3DFACE
  8
F5_MSW_DORM1
 62
 43
 10
       15.98000
 20
        3.63500
 30
       13.00000
 11
       15.98000
 21
        3.63500
 31
       10.40000
 12
       14.10000
 22
        3.63500
 32
       10.40000
 13
       14.10000
 23
        3.63500
 33
       13.00000
999
F5_MSW_DORM1:F5_MSW_DORM1_WALL41_INT
  0
3DFACE
  8
F5_MSW_DORM1
 62
 43
 10
       14.10000
 20
        3.63500
 30
       13.00000
 11
       14.10000
 21
        3.63500
 31
       10.40000
 12
       14.10000
 22
        2.80500
 32
       10.40000
 13
       14.10000
 23
        2.80500
 33
       13.00000
999
F5_MSW_DORM1:F5_MSW_DORM1_DOOR4
  0
3DFACE
  8
F5_MSW_DORM1
 62
 45
 10
       14.10000
 20
        3.62000
 30
       12.50000
 11
       14.10000
 21
        3.62000
 31
       10.40000
 12
       14.10000
 22
        2.82000
 32
       10.40000
 13
       14.10000
 23
        2.82000
 33
       12.50000
999
F5_MSW_DORM1:F5_MSW_DORM1_WALL42_INT
  0
3DFACE
  8
F5_MSW_DORM1
 62
 43
 10
       15.23000
 20
        2.80500
 30
       13.00000
 11
       15.23000
 21
        2.80500
 31
       10.40000
 12
       15.23000
 22
        0.57000
 32
       10.40000
 13
       15.23000
 23
        0.57000
 33
       13.00000
999
F5_MSW_DORM1:F5_MSW_DORM1_FLOOR
  0
POLYLINE
  8
F5_MSW_DORM1
 62
  8
 66
  1
 10
 0.0
 20
 0.0
 30
       10.40000
 70
   9
 40
 0.55
 41
 0.55
  0
VERTEX
  8
F5_MSW_DORM1
 10
       18.14000
 20
        3.63500
 30
       10.40000
  0
VERTEX
  8
F5_MSW_DORM1
 10
       18.14000
 20
        0.57000
 30
       10.40000
  0
VERTEX
  8
F5_MSW_DORM1
 10
       15.23000
 20
        0.57000
 30
       10.40000
  0
VERTEX
  8
F5_MSW_DORM1
 10
       15.23000
 20
        2.80500
 30
       10.40000
  0
VERTEX
  8
F5_MSW_DORM1
 10
       14.10000
 20
        2.80500
 30
       10.40000
  0
VERTEX
  8
F5_MSW_DORM1
 10
       14.10000
 20
        3.63500
 30
       10.40000
  0
SEQEND
  8
F5_MSW_DORM1
999
F5_MSW_DORM1:F5_MSW_DORM1_ROOF
  0
POLYLINE
  8
F5_MSW_DORM1
 62
 15
 66
  1
 10
 0.0
 20
 0.0
 30
       13.00000
 70
   9
 40
 0.55
 41
 0.55
  0
VERTEX
  8
F5_MSW_DORM1
 10
       14.10000
 20
        3.63500
 30
       13.00000
  0
VERTEX
  8
F5_MSW_DORM1
 10
       14.10000
 20
        2.80500
 30
       13.00000
  0
VERTEX
  8
F5_MSW_DORM1
 10
       15.23000
 20
        2.80500
 30
       13.00000
  0
VERTEX
  8
F5_MSW_DORM1
 10
       15.23000
 20
        0.57000
 30
       13.00000
  0
VERTEX
  8
F5_MSW_DORM1
 10
       18.14000
 20
        0.57000
 30
       13.00000
  0
VERTEX
  8
F5_MSW_DORM1
 10
       18.14000
 20
        3.63500
 30
       13.00000
  0
SEQEND
  8
F5_MSW_DORM1
999
F5_MSW_DORM2:F5_MSW_DORM2_WALL1_EXT
  0
3DFACE
  8
F5_MSW_DORM2
 62
 43
 10
       11.85000
 20
        0.57000
 30
       13.00000
 11
       11.85000
 21
        0.57000
 31
       10.40000
 12
       15.23000
 22
        0.57000
 32
       10.40000
 13
       15.23000
 23
        0.57000
 33
       13.00000
999
F5_MSW_DORM2:F5_MSW_DORM2_WINDOW1
  0
3DFACE
  8
F5_MSW_DORM2
 62
143
 10
       12.94000
 20
        0.57000
 30
       12.70000
 11
       12.94000
 21
        0.57000
 31
       11.50000
 12
       14.14000
 22
        0.57000
 32
       11.50000
 13
       14.14000
 23
        0.57000
 33
       12.70000
999
F5_MSW_DORM2:F5_MSW_DORM2_WALL2_INT
  0
3DFACE
  8
F5_MSW_DORM2
 62
 43
 10
       15.23000
 20
        0.57000
 30
       13.00000
 11
       15.23000
 21
        0.57000
 31
       10.40000
 12
       15.23000
 22
        2.80500
 32
       10.40000
 13
       15.23000
 23
        2.80500
 33
       13.00000
999
F5_MSW_DORM2:F5_MSW_DORM2_WALL4_INT
  0
3DFACE
  8
F5_MSW_DORM2
 62
 43
 10
       11.85000
 20
        2.80500
 30
       13.00000
 11
       11.85000
 21
        2.80500
 31
       10.40000
 12
       11.85000
 22
        0.57000
 32
       10.40000
 13
       11.85000
 23
        0.57000
 33
       13.00000
999
F5_MSW_DORM2:F5_MSW_DORM2_WALL31_INT
  0
3DFACE
  8
F5_MSW_DORM2
 62
 43
 10
       15.23000
 20
        2.80500
 30
       13.00000
 11
       15.23000
 21
        2.80500
 31
       10.40000
 12
       14.10000
 22
        2.80500
 32
       10.40000
 13
       14.10000
 23
        2.80500
 33
       13.00000
999
F5_MSW_DORM2:F5_MSW_DORM2_WALL32_INT
  0
3DFACE
  8
F5_MSW_DORM2
 62
 43
 10
       14.10000
 20
        2.80500
 30
       13.00000
 11
       14.10000
 21
        2.80500
 31
       10.40000
 12
       11.85000
 22
        2.80500
 32
       10.40000
 13
       11.85000
 23
        2.80500
 33
       13.00000
999
F5_MSW_DORM2:F5_MSW_DORM2_DOOR3
  0
3DFACE
  8
F5_MSW_DORM2
 62
 45
 10
       12.75000
 20
        2.80500
 30
       12.50000
 11
       12.75000
 21
        2.80500
 31
       10.40000
 12
       11.95000
 22
        2.80500
 32
       10.40000
 13
       11.95000
 23
        2.80500
 33
       12.50000
999
F5_MSW_DORM2:F5_MSW_DORM2_FLOOR
  0
3DFACE
  8
F5_MSW_DORM2
 62
  8
 10
       15.23000
 20
        2.80500
 30
       10.40000
 11
       15.23000
 21
        0.57000
 31
       10.40000
 12
       11.85000
 22
        0.57000
 32
       10.40000
 13
       11.85000
 23
        2.80500
 33
       10.40000
999
F5_MSW_DORM2:F5_MSW_DORM2_ROOF
  0
3DFACE
  8
F5_MSW_DORM2
 62
 15
 10
       11.85000
 20
        2.80500
 30
       13.00000
 11
       11.85000
 21
        0.57000
 31
       13.00000
 12
       15.23000
 22
        0.57000
 32
       13.00000
 13
       15.23000
 23
        2.80500
 33
       13.00000
999
F5_MSW_LIV:F5_MSW_LIV_WALL11_EXT
  0
3DFACE
  8
F5_MSW_LIV
 62
 43
 10
        7.80000
 20
        0.57000
 30
       13.00000
 11
        7.80000
 21
        0.57000
 31
       10.40000
 12
       11.85000
 22
        0.57000
 32
       10.40000
 13
       11.85000
 23
        0.57000
 33
       13.00000
999
F5_MSW_LIV:F5_MSW_LIV_WINDOW11
  0
3DFACE
  8
F5_MSW_LIV
 62
143
 10
        7.97000
 20
        0.57000
 30
       12.70000
 11
        7.97000
 21
        0.57000
 31
       11.50000
 12
        9.17000
 22
        0.57000
 32
       11.50000
 13
        9.17000
 23
        0.57000
 33
       12.70000
999
F5_MSW_LIV:F5_MSW_LIV_WINDOW12
  0
3DFACE
  8
F5_MSW_LIV
 62
143
 10
        9.99500
 20
        0.57000
 30
       12.70000
 11
        9.99500
 21
        0.57000
 31
       11.50000
 12
       11.19500
 22
        0.57000
 32
       11.50000
 13
       11.19500
 23
        0.57000
 33
       12.70000
999
F5_MSW_LIV:F5_MSW_LIV_WALL12_INT
  0
3DFACE
  8
F5_MSW_LIV
 62
 43
 10
       11.85000
 20
        2.80500
 30
       13.00000
 11
       11.85000
 21
        2.80500
 31
       10.40000
 12
       14.10000
 22
        2.80500
 32
       10.40000
 13
       14.10000
 23
        2.80500
 33
       13.00000
999
F5_MSW_LIV:F5_MSW_LIV_DOOR1
  0
3DFACE
  8
F5_MSW_LIV
 62
 45
 10
       11.95000
 20
        2.80500
 30
       12.50000
 11
       11.95000
 21
        2.80500
 31
       10.40000
 12
       12.75000
 22
        2.80500
 32
       10.40000
 13
       12.75000
 23
        2.80500
 33
       12.50000
999
F5_MSW_LIV:F5_MSW_LIV_WALL21_INT
  0
3DFACE
  8
F5_MSW_LIV
 62
 43
 10
       11.85000
 20
        0.57000
 30
       13.00000
 11
       11.85000
 21
        0.57000
 31
       10.40000
 12
       11.85000
 22
        2.80500
 32
       10.40000
 13
       11.85000
 23
        2.80500
 33
       13.00000
999
F5_MSW_LIV:F5_MSW_LIV_WALL22_INT
  0
3DFACE
  8
F5_MSW_LIV
 62
 43
 10
       14.10000
 20
        2.80500
 30
       13.00000
 11
       14.10000
 21
        2.80500
 31
       10.40000
 12
       14.10000
 22
        3.63500
 32
       10.40000
 13
       14.10000
 23
        3.63500
 33
       13.00000
999
F5_MSW_LIV:F5_MSW_LIV_DOOR2
  0
3DFACE
  8
F5_MSW_LIV
 62
 45
 10
       14.10000
 20
        2.82000
 30
       12.50000
 11
       14.10000
 21
        2.82000
 31
       10.40000
 12
       14.10000
 22
        3.62000
 32
       10.40000
 13
       14.10000
 23
        3.62000
 33
       12.50000
999
F5_MSW_LIV:F5_MSW_LIV_WALL23_INT
  0
3DFACE
  8
F5_MSW_LIV
 62
 43
 10
       11.85000
 20
        3.63500
 30
       13.00000
 11
       11.85000
 21
        3.63500
 31
       10.40000
 12
       11.85000
 22
        4.83500
 32
       10.40000
 13
       11.85000
 23
        4.83500
 33
       13.00000
999
F5_MSW_LIV:F5_MSW_LIV_WALL31_INT
  0
3DFACE
  8
F5_MSW_LIV
 62
 43
 10
       14.10000
 20
        3.63500
 30
       13.00000
 11
       14.10000
 21
        3.63500
 31
       10.40000
 12
       11.85000
 22
        3.63500
 32
       10.40000
 13
       11.85000
 23
        3.63500
 33
       13.00000
999
F5_MSW_LIV:F5_MSW_LIV_DOOR31
  0
3DFACE
  8
F5_MSW_LIV
 62
 45
 10
       12.75000
 20
        3.63500
 30
       12.50000
 11
       12.75000
 21
        3.63500
 31
       10.40000
 12
       11.95000
 22
        3.63500
 32
       10.40000
 13
       11.95000
 23
        3.63500
 33
       12.50000
999
F5_MSW_LIV:F5_MSW_LIV_WALL32_INT
  0
3DFACE
  8
F5_MSW_LIV
 62
 43
 10
       11.85000
 20
        4.83500
 30
       13.00000
 11
       11.85000
 21
        4.83500
 31
       10.40000
 12
        9.45000
 22
        4.83500
 32
       10.40000
 13
        9.45000
 23
        4.83500
 33
       13.00000
999
F5_MSW_LIV:F5_MSW_LIV_DOOR32
  0
3DFACE
  8
F5_MSW_LIV
 62
 45
 10
       11.75000
 20
        4.83500
 30
       12.50000
 11
       11.75000
 21
        4.83500
 31
       10.40000
 12
       10.95000
 22
        4.83500
 32
       10.40000
 13
       10.95000
 23
        4.83500
 33
       12.50000
999
F5_MSW_LIV:F5_MSW_LIV_WALL33_INT
  0
3DFACE
  8
F5_MSW_LIV
 62
 43
 10
        9.45000
 20
        4.47000
 30
       13.00000
 11
        9.45000
 21
        4.47000
 31
       10.40000
 12
        7.80000
 22
        4.47000
 32
       10.40000
 13
        7.80000
 23
        4.47000
 33
       13.00000
999
F5_MSW_LIV:F5_MSW_LIV_WALL41_INT
  0
3DFACE
  8
F5_MSW_LIV
 62
 43
 10
        9.45000
 20
        4.83500
 30
       13.00000
 11
        9.45000
 21
        4.83500
 31
       10.40000
 12
        9.45000
 22
        4.47000
 32
       10.40000
 13
        9.45000
 23
        4.47000
 33
       13.00000
999
F5_MSW_LIV:F5_MSW_LIV_WALL42_INT
  0
3DFACE
  8
F5_MSW_LIV
 62
 43
 10
        7.80000
 20
        4.47000
 30
       13.00000
 11
        7.80000
 21
        4.47000
 31
       10.40000
 12
        7.80000
 22
        0.57000
 32
       10.40000
 13
        7.80000
 23
        0.57000
 33
       13.00000
999
F5_MSW_LIV:F5_MSW_LIV_FLOOR
  0
POLYLINE
  8
F5_MSW_LIV
 62
  8
 66
  1
 10
 0.0
 20
 0.0
 30
       10.40000
 70
   9
 40
 0.55
 41
 0.55
  0
VERTEX
  8
F5_MSW_LIV
 10
       14.10000
 20
        3.63500
 30
       10.40000
  0
VERTEX
  8
F5_MSW_LIV
 10
       14.10000
 20
        2.80500
 30
       10.40000
  0
VERTEX
  8
F5_MSW_LIV
 10
       11.85000
 20
        2.80500
 30
       10.40000
  0
VERTEX
  8
F5_MSW_LIV
 10
       11.85000
 20
        0.57000
 30
       10.40000
  0
VERTEX
  8
F5_MSW_LIV
 10
        7.80000
 20
        0.57000
 30
       10.40000
  0
VERTEX
  8
F5_MSW_LIV
 10
        7.80000
 20
        4.47000
 30
       10.40000
  0
VERTEX
  8
F5_MSW_LIV
 10
        9.45000
 20
        4.47000
 30
       10.40000
  0
VERTEX
  8
F5_MSW_LIV
 10
        9.45000
 20
        4.83500
 30
       10.40000
  0
VERTEX
  8
F5_MSW_LIV
 10
       11.85000
 20
        4.83500
 30
       10.40000
  0
VERTEX
  8
F5_MSW_LIV
 10
       11.85000
 20
        3.63500
 30
       10.40000
  0
SEQEND
  8
F5_MSW_LIV
999
F5_MSW_LIV:F5_MSW_LIV_ROOF
  0
POLYLINE
  8
F5_MSW_LIV
 62
 15
 66
  1
 10
 0.0
 20
 0.0
 30
       13.00000
 70
   9
 40
 0.55
 41
 0.55
  0
VERTEX
  8
F5_MSW_LIV
 10
        7.80000
 20
        4.47000
 30
       13.00000
  0
VERTEX
  8
F5_MSW_LIV
 10
        7.80000
 20
        0.57000
 30
       13.00000
  0
VERTEX
  8
F5_MSW_LIV
 10
       11.85000
 20
        0.57000
 30
       13.00000
  0
VERTEX
  8
F5_MSW_LIV
 10
       11.85000
 20
        2.80500
 30
       13.00000
  0
VERTEX
  8
F5_MSW_LIV
 10
       14.10000
 20
        2.80500
 30
       13.00000
  0
VERTEX
  8
F5_MSW_LIV
 10
       14.10000
 20
        3.63500
 30
       13.00000
  0
VERTEX
  8
F5_MSW_LIV
 10
       11.85000
 20
        3.63500
 30
       13.00000
  0
VERTEX
  8
F5_MSW_LIV
 10
       11.85000
 20
        4.83500
 30
       13.00000
  0
VERTEX
  8
F5_MSW_LIV
 10
        9.45000
 20
        4.83500
 30
       13.00000
  0
VERTEX
  8
F5_MSW_LIV
 10
        9.45000
 20
        4.47000
 30
       13.00000
  0
SEQEND
  8
F5_MSW_LIV
  0
ENDSEC
  0
EOF
