  0
SECTION
  2
ENTITIES
999
DXF created from EnergyPlus
999
Program Version,EnergyPlus, Version 9.0.1-bb7ca4f0da, YMD=2020.11.06 16:23
999
Polygon Action,THICKPOLYLINE
999
Color Scheme,Default
999
Text - True North
  0
TEXT
  8
1
  6
Continuous
 62
  3
 10
      -11.00000
 20
        3.00000
 30
        0.10000
 40
 .25
  1
True North
 41
 0.0
  7
MONOTXT
210
0.0
220
0.0
230
1.0
999
Text - Building Title
  0
TEXT
  8
1
  6
Continuous
 62
  3
 10
      -14.00000
 20
       -1.00000
 30
        0.10000
 40
 .4
  1
Building - model
 41
 0.0
  7
MONOTXT
210
0.0
220
0.0
230
1.0
999
North Arrow Stem
  0
3DFACE
  8
1
 62
  3
 10
      -10.00000
 20
        3.00000
 30
        0.10000
 11
      -10.00000
 21
        3.00000
 31
        0.00000
 12
      -10.00000
 22
        0.00000
 32
        0.00000
 13
      -10.00000
 23
        0.00000
 33
        0.10000
999
North Arrow Head 1
  0
3DFACE
  8
1
 62
  3
 10
      -10.00000
 20
        3.00000
 30
        0.10000
 11
      -10.00000
 21
        3.00000
 31
        0.00000
 12
      -10.50000
 22
        2.13397
 32
        0.00000
 13
      -10.50000
 23
        2.13397
 33
        0.10000
999
North Arrow Head 2
  0
3DFACE
  8
1
 62
  3
 10
      -10.00000
 20
        3.00000
 30
        0.10000
 11
      -10.00000
 21
        3.00000
 31
        0.00000
 12
       -9.50000
 22
        2.13397
 32
        0.00000
 13
       -9.50000
 23
        2.13397
 33
        0.10000
999
North Arrow Side 1
  0
3DFACE
  8
1
 62
  3
 10
      -10.50000
 20
        4.50000
 30
        0.10000
 11
      -10.50000
 21
        4.50000
 31
        0.00000
 12
      -10.50000
 22
        3.50000
 32
        0.00000
 13
      -10.50000
 23
        3.50000
 33
        0.10000
999
North Arrow Side 2
  0
3DFACE
  8
1
 62
  3
 10
      -10.50000
 20
        4.50000
 30
        0.10000
 11
      -10.50000
 21
        4.50000
 31
        0.00000
 12
       -9.50000
 22
        3.50000
 32
        0.00000
 13
       -9.50000
 23
        3.50000
 33
        0.10000
999
North Arrow Side 3
  0
3DFACE
  8
1
 62
  3
 10
       -9.50000
 20
        4.50000
 30
        0.10000
 11
       -9.50000
 21
        4.50000
 31
        0.00000
 12
       -9.50000
 22
        3.50000
 32
        0.00000
 13
       -9.50000
 23
        3.50000
 33
        0.10000
999
Zone Names
999
Zone=1:F1_BWC
999
Zone=2:F1_DORM1
999
Zone=3:F1_DORM2
999
Zone=4:F1_LIV
999
Zone=5:F2_BWC
999
Zone=6:F2_DORM1
999
Zone=7:F2_DORM2
999
Zone=8:F2_LIV
999
Zone=9:F3_BWC
999
Zone=10:F3_DORM1
999
Zone=11:F3_DORM2
999
Zone=12:F3_LIV
999
F1_BWC:F1_BWC_WALL1_INT
  0
3DFACE
  8
F1_BWC
 62
 43
 10
        0.00000
 20
        3.00000
 30
        2.60000
 11
        0.00000
 21
        3.00000
 31
        0.00000
 12
        2.00000
 22
        3.00000
 32
        0.00000
 13
        2.00000
 23
        3.00000
 33
        2.60000
999
F1_BWC:F1_BWC_WALL2_INT
  0
3DFACE
  8
F1_BWC
 62
 43
 10
        2.00000
 20
        3.00000
 30
        2.60000
 11
        2.00000
 21
        3.00000
 31
        0.00000
 12
        2.00000
 22
        4.50000
 32
        0.00000
 13
        2.00000
 23
        4.50000
 33
        2.60000
999
F1_BWC:F1_BWC_DOOR2
  0
3DFACE
  8
F1_BWC
 62
 45
 10
        2.00000
 20
        3.35000
 30
        2.10000
 11
        2.00000
 21
        3.35000
 31
        0.00000
 12
        2.00000
 22
        4.15000
 32
        0.00000
 13
        2.00000
 23
        4.15000
 33
        2.10000
999
F1_BWC:F1_BWC_WALL3_INT
  0
3DFACE
  8
F1_BWC
 62
 43
 10
        2.00000
 20
        4.50000
 30
        2.60000
 11
        2.00000
 21
        4.50000
 31
        0.00000
 12
        0.00000
 22
        4.50000
 32
        0.00000
 13
        0.00000
 23
        4.50000
 33
        2.60000
999
F1_BWC:F1_BWC_WALL4_EXT
  0
3DFACE
  8
F1_BWC
 62
 43
 10
        0.00000
 20
        4.50000
 30
        2.60000
 11
        0.00000
 21
        4.50000
 31
        0.00000
 12
        0.00000
 22
        3.00000
 32
        0.00000
 13
        0.00000
 23
        3.00000
 33
        2.60000
999
F1_BWC:F1_BWC_WINDOW4
  0
3DFACE
  8
F1_BWC
 62
143
 10
        0.00000
 20
        4.05000
 30
        1.60000
 11
        0.00000
 21
        4.05000
 31
        1.00000
 12
        0.00000
 22
        3.45000
 32
        1.00000
 13
        0.00000
 23
        3.45000
 33
        1.60000
999
F1_BWC:F1_BWC_FLOOR
  0
3DFACE
  8
F1_BWC
 62
  8
 10
        2.00000
 20
        4.50000
 30
        0.00000
 11
        2.00000
 21
        3.00000
 31
        0.00000
 12
        0.00000
 22
        3.00000
 32
        0.00000
 13
        0.00000
 23
        4.50000
 33
        0.00000
999
F1_BWC:F1_BWC_ROOF
  0
3DFACE
  8
F1_BWC
 62
 15
 10
        0.00000
 20
        4.50000
 30
        2.60000
 11
        0.00000
 21
        3.00000
 31
        2.60000
 12
        2.00000
 22
        3.00000
 32
        2.60000
 13
        2.00000
 23
        4.50000
 33
        2.60000
999
F1_DORM1:F1_DORM1_WALL1_EXT
  0
3DFACE
  8
F1_DORM1
 62
 43
 10
        0.00000
 20
        0.00000
 30
        2.60000
 11
        0.00000
 21
        0.00000
 31
        0.00000
 12
        3.00000
 22
        0.00000
 32
        0.00000
 13
        3.00000
 23
        0.00000
 33
        2.60000
999
F1_DORM1:F1_DORM1_WINDOW1
  0
3DFACE
  8
F1_DORM1
 62
143
 10
        0.83000
 20
        0.00000
 30
        1.88000
 11
        0.83000
 21
        0.00000
 31
        0.72000
 12
        2.17000
 22
        0.00000
 32
        0.72000
 13
        2.17000
 23
        0.00000
 33
        1.88000
999
F1_DORM1:F1_DORM1_WALL2_INT
  0
3DFACE
  8
F1_DORM1
 62
 43
 10
        3.00000
 20
        0.00000
 30
        2.60000
 11
        3.00000
 21
        0.00000
 31
        0.00000
 12
        3.00000
 22
        3.00000
 32
        0.00000
 13
        3.00000
 23
        3.00000
 33
        2.60000
999
F1_DORM1:F1_DORM1_WALL4_EXT
  0
3DFACE
  8
F1_DORM1
 62
 43
 10
        0.00000
 20
        3.00000
 30
        2.60000
 11
        0.00000
 21
        3.00000
 31
        0.00000
 12
        0.00000
 22
        0.00000
 32
        0.00000
 13
        0.00000
 23
        0.00000
 33
        2.60000
999
F1_DORM1:F1_DORM1_WALL31_INT
  0
3DFACE
  8
F1_DORM1
 62
 43
 10
        3.00000
 20
        3.00000
 30
        2.60000
 11
        3.00000
 21
        3.00000
 31
        0.00000
 12
        2.00000
 22
        3.00000
 32
        0.00000
 13
        2.00000
 23
        3.00000
 33
        2.60000
999
F1_DORM1:F1_DORM1_DOOR3
  0
3DFACE
  8
F1_DORM1
 62
 45
 10
        2.90000
 20
        3.00000
 30
        2.10000
 11
        2.90000
 21
        3.00000
 31
        0.00000
 12
        2.10000
 22
        3.00000
 32
        0.00000
 13
        2.10000
 23
        3.00000
 33
        2.10000
999
F1_DORM1:F1_DORM1_WALL32_INT
  0
3DFACE
  8
F1_DORM1
 62
 43
 10
        2.00000
 20
        3.00000
 30
        2.60000
 11
        2.00000
 21
        3.00000
 31
        0.00000
 12
        0.00000
 22
        3.00000
 32
        0.00000
 13
        0.00000
 23
        3.00000
 33
        2.60000
999
F1_DORM1:F1_DORM1_FLOOR
  0
3DFACE
  8
F1_DORM1
 62
  8
 10
        3.00000
 20
        3.00000
 30
        0.00000
 11
        3.00000
 21
        0.00000
 31
        0.00000
 12
        0.00000
 22
        0.00000
 32
        0.00000
 13
        0.00000
 23
        3.00000
 33
        0.00000
999
F1_DORM1:F1_DORM1_ROOF
  0
3DFACE
  8
F1_DORM1
 62
 15
 10
        0.00000
 20
        3.00000
 30
        2.60000
 11
        0.00000
 21
        0.00000
 31
        2.60000
 12
        3.00000
 22
        0.00000
 32
        2.60000
 13
        3.00000
 23
        3.00000
 33
        2.60000
999
F1_DORM2:F1_DORM2_WALL1_EXT
  0
3DFACE
  8
F1_DORM2
 62
 43
 10
        3.00000
 20
        0.00000
 30
        2.60000
 11
        3.00000
 21
        0.00000
 31
        0.00000
 12
        5.70000
 22
        0.00000
 32
        0.00000
 13
        5.70000
 23
        0.00000
 33
        2.60000
999
F1_DORM2:F1_DORM2_WINDOW1
  0
3DFACE
  8
F1_DORM2
 62
143
 10
        3.74500
 20
        0.00000
 30
        1.88000
 11
        3.74500
 21
        0.00000
 31
        0.72000
 12
        4.95500
 22
        0.00000
 32
        0.72000
 13
        4.95500
 23
        0.00000
 33
        1.88000
999
F1_DORM2:F1_DORM2_WALL2_EXT
  0
3DFACE
  8
F1_DORM2
 62
 43
 10
        5.70000
 20
        0.00000
 30
        2.60000
 11
        5.70000
 21
        0.00000
 31
        0.00000
 12
        5.70000
 22
        3.00000
 32
        0.00000
 13
        5.70000
 23
        3.00000
 33
        2.60000
999
F1_DORM2:F1_DORM2_WALL3_INT
  0
3DFACE
  8
F1_DORM2
 62
 43
 10
        5.70000
 20
        3.00000
 30
        2.60000
 11
        5.70000
 21
        3.00000
 31
        0.00000
 12
        3.00000
 22
        3.00000
 32
        0.00000
 13
        3.00000
 23
        3.00000
 33
        2.60000
999
F1_DORM2:F1_DORM2_DOOR3
  0
3DFACE
  8
F1_DORM2
 62
 45
 10
        4.75000
 20
        3.00000
 30
        2.10000
 11
        4.75000
 21
        3.00000
 31
        0.00000
 12
        3.95000
 22
        3.00000
 32
        0.00000
 13
        3.95000
 23
        3.00000
 33
        2.10000
999
F1_DORM2:F1_DORM2_WALL4_INT
  0
3DFACE
  8
F1_DORM2
 62
 43
 10
        3.00000
 20
        3.00000
 30
        2.60000
 11
        3.00000
 21
        3.00000
 31
        0.00000
 12
        3.00000
 22
        0.00000
 32
        0.00000
 13
        3.00000
 23
        0.00000
 33
        2.60000
999
F1_DORM2:F1_DORM2_FLOOR
  0
3DFACE
  8
F1_DORM2
 62
  8
 10
        5.70000
 20
        3.00000
 30
        0.00000
 11
        5.70000
 21
        0.00000
 31
        0.00000
 12
        3.00000
 22
        0.00000
 32
        0.00000
 13
        3.00000
 23
        3.00000
 33
        0.00000
999
F1_DORM2:F1_DORM2_ROOF
  0
3DFACE
  8
F1_DORM2
 62
 15
 10
        3.00000
 20
        3.00000
 30
        2.60000
 11
        3.00000
 21
        0.00000
 31
        2.60000
 12
        5.70000
 22
        0.00000
 32
        2.60000
 13
        5.70000
 23
        3.00000
 33
        2.60000
999
F1_LIV:F1_LIV_WALL3_INT
  0
3DFACE
  8
F1_LIV
 62
 43
 10
        7.40000
 20
        3.00000
 30
        2.60000
 11
        7.40000
 21
        3.00000
 31
        0.00000
 12
        7.40000
 22
        6.40000
 32
        0.00000
 13
        7.40000
 23
        6.40000
 33
        2.60000
999
F1_LIV:F1_LIV_WALL4_INT
  0
3DFACE
  8
F1_LIV
 62
 43
 10
        7.40000
 20
        6.40000
 30
        2.60000
 11
        7.40000
 21
        6.40000
 31
        0.00000
 12
        0.00000
 22
        6.40000
 32
        0.00000
 13
        0.00000
 23
        6.40000
 33
        2.60000
999
F1_LIV:F1_LIV_WALL11_INT
  0
3DFACE
  8
F1_LIV
 62
 43
 10
        0.00000
 20
        4.50000
 30
        2.60000
 11
        0.00000
 21
        4.50000
 31
        0.00000
 12
        2.00000
 22
        4.50000
 32
        0.00000
 13
        2.00000
 23
        4.50000
 33
        2.60000
999
F1_LIV:F1_LIV_WALL12_INT
  0
3DFACE
  8
F1_LIV
 62
 43
 10
        2.00000
 20
        3.00000
 30
        2.60000
 11
        2.00000
 21
        3.00000
 31
        0.00000
 12
        3.00000
 22
        3.00000
 32
        0.00000
 13
        3.00000
 23
        3.00000
 33
        2.60000
999
F1_LIV:F1_LIV_DOOR11
  0
3DFACE
  8
F1_LIV
 62
 45
 10
        2.10000
 20
        3.00000
 30
        2.10000
 11
        2.10000
 21
        3.00000
 31
        0.00000
 12
        2.90000
 22
        3.00000
 32
        0.00000
 13
        2.90000
 23
        3.00000
 33
        2.10000
999
F1_LIV:F1_LIV_WALL13_INT
  0
3DFACE
  8
F1_LIV
 62
 43
 10
        3.00000
 20
        3.00000
 30
        2.60000
 11
        3.00000
 21
        3.00000
 31
        0.00000
 12
        5.70000
 22
        3.00000
 32
        0.00000
 13
        5.70000
 23
        3.00000
 33
        2.60000
999
F1_LIV:F1_LIV_DOOR12
  0
3DFACE
  8
F1_LIV
 62
 45
 10
        3.95000
 20
        3.00000
 30
        2.10000
 11
        3.95000
 21
        3.00000
 31
        0.00000
 12
        4.75000
 22
        3.00000
 32
        0.00000
 13
        4.75000
 23
        3.00000
 33
        2.10000
999
F1_LIV:F1_LIV_WALL14_BALC
  0
3DFACE
  8
F1_LIV
 62
 43
 10
        5.70000
 20
        3.00000
 30
        2.60000
 11
        5.70000
 21
        3.00000
 31
        0.00000
 12
        7.40000
 22
        3.00000
 32
        0.00000
 13
        7.40000
 23
        3.00000
 33
        2.60000
999
F1_LIV:F1_LIV_WINDOW1
  0
3DFACE
  8
F1_LIV
 62
143
 10
        6.17000
 20
        3.00000
 30
        1.88000
 11
        6.17000
 21
        3.00000
 31
        0.72000
 12
        6.93000
 22
        3.00000
 32
        0.72000
 13
        6.93000
 23
        3.00000
 33
        1.88000
999
F1_LIV:F1_LIV_WALL41_INT
  0
3DFACE
  8
F1_LIV
 62
 43
 10
        2.00000
 20
        4.50000
 30
        2.60000
 11
        2.00000
 21
        4.50000
 31
        0.00000
 12
        2.00000
 22
        3.00000
 32
        0.00000
 13
        2.00000
 23
        3.00000
 33
        2.60000
999
F1_LIV:F1_LIV_DOOR4
  0
3DFACE
  8
F1_LIV
 62
 45
 10
        2.00000
 20
        4.15000
 30
        2.10000
 11
        2.00000
 21
        4.15000
 31
        0.00000
 12
        2.00000
 22
        3.35000
 32
        0.00000
 13
        2.00000
 23
        3.35000
 33
        2.10000
999
F1_LIV:F1_LIV_WALL42_EXT
  0
3DFACE
  8
F1_LIV
 62
 43
 10
        0.00000
 20
        6.40000
 30
        2.60000
 11
        0.00000
 21
        6.40000
 31
        0.00000
 12
        0.00000
 22
        4.50000
 32
        0.00000
 13
        0.00000
 23
        4.50000
 33
        2.60000
999
F1_LIV:F1_LIV_WINDOW4
  0
3DFACE
  8
F1_LIV
 62
143
 10
        0.00000
 20
        5.87500
 30
        1.88000
 11
        0.00000
 21
        5.87500
 31
        0.72000
 12
        0.00000
 22
        5.02500
 32
        0.72000
 13
        0.00000
 23
        5.02500
 33
        1.88000
999
F1_LIV:F1_LIV_FLOOR
  0
POLYLINE
  8
F1_LIV
 62
  8
 66
  1
 10
 0.0
 20
 0.0
 30
        0.00000
 70
   9
 40
 0.55
 41
 0.55
  0
VERTEX
  8
F1_LIV
 10
        7.40000
 20
        6.40000
 30
        0.00000
  0
VERTEX
  8
F1_LIV
 10
        7.40000
 20
        3.00000
 30
        0.00000
  0
VERTEX
  8
F1_LIV
 10
        2.00000
 20
        3.00000
 30
        0.00000
  0
VERTEX
  8
F1_LIV
 10
        2.00000
 20
        4.50000
 30
        0.00000
  0
VERTEX
  8
F1_LIV
 10
        0.00000
 20
        4.50000
 30
        0.00000
  0
VERTEX
  8
F1_LIV
 10
        0.00000
 20
        6.40000
 30
        0.00000
  0
SEQEND
  8
F1_LIV
999
F1_LIV:F1_LIV_ROOF
  0
POLYLINE
  8
F1_LIV
 62
 15
 66
  1
 10
 0.0
 20
 0.0
 30
        2.60000
 70
   9
 40
 0.55
 41
 0.55
  0
VERTEX
  8
F1_LIV
 10
        0.00000
 20
        6.40000
 30
        2.60000
  0
VERTEX
  8
F1_LIV
 10
        0.00000
 20
        4.50000
 30
        2.60000
  0
VERTEX
  8
F1_LIV
 10
        2.00000
 20
        4.50000
 30
        2.60000
  0
VERTEX
  8
F1_LIV
 10
        2.00000
 20
        3.00000
 30
        2.60000
  0
VERTEX
  8
F1_LIV
 10
        7.40000
 20
        3.00000
 30
        2.60000
  0
VERTEX
  8
F1_LIV
 10
        7.40000
 20
        6.40000
 30
        2.60000
  0
SEQEND
  8
F1_LIV
999
F1_LIV:SHADING_F1_LIV_WALL14_BALC_FLOOR
  0
3DFACE
  8
F1_LIV
 62
 13
 10
        7.40000
 20
        3.00000
 30
        0.00000
 11
        7.40000
 21
        2.00000
 31
        0.00000
 12
        5.70000
 22
        2.00000
 32
        0.00000
 13
        5.70000
 23
        3.00000
 33
        0.00000
999
F1_LIV:Mir-SHADING_F1_LIV_WALL14_BALC_FLOOR
  0
3DFACE
  8
F1_LIV
 62
 13
 10
        5.70000
 20
        3.00000
 30
        0.00000
 11
        5.70000
 21
        2.00000
 31
        0.00000
 12
        7.40000
 22
        2.00000
 32
        0.00000
 13
        7.40000
 23
        3.00000
 33
        0.00000
999
F1_LIV:SHADING_F1_LIV_WALL14_BALC_ROOF
  0
3DFACE
  8
F1_LIV
 62
 13
 10
        5.70000
 20
        3.00000
 30
        2.60000
 11
        5.70000
 21
        2.00000
 31
        2.60000
 12
        7.40000
 22
        2.00000
 32
        2.60000
 13
        7.40000
 23
        3.00000
 33
        2.60000
999
F1_LIV:Mir-SHADING_F1_LIV_WALL14_BALC_ROOF
  0
3DFACE
  8
F1_LIV
 62
 13
 10
        7.40000
 20
        3.00000
 30
        2.60000
 11
        7.40000
 21
        2.00000
 31
        2.60000
 12
        5.70000
 22
        2.00000
 32
        2.60000
 13
        5.70000
 23
        3.00000
 33
        2.60000
999
F1_LIV:SHADING_F1_LIV_WALL14_BALC_WALL1
  0
3DFACE
  8
F1_LIV
 62
 13
 10
        5.70000
 20
        2.00000
 30
        1.10000
 11
        5.70000
 21
        2.00000
 31
        0.00000
 12
        7.40000
 22
        2.00000
 32
        0.00000
 13
        7.40000
 23
        2.00000
 33
        1.10000
999
F1_LIV:Mir-SHADING_F1_LIV_WALL14_BALC_WALL1
  0
3DFACE
  8
F1_LIV
 62
 13
 10
        7.40000
 20
        2.00000
 30
        1.10000
 11
        7.40000
 21
        2.00000
 31
        0.00000
 12
        5.70000
 22
        2.00000
 32
        0.00000
 13
        5.70000
 23
        2.00000
 33
        1.10000
999
F1_LIV:SHADING_F1_LIV_WALL14_BALC_WALL2
  0
3DFACE
  8
F1_LIV
 62
 13
 10
        7.40000
 20
        2.00000
 30
        1.10000
 11
        7.40000
 21
        2.00000
 31
        0.00000
 12
        7.40000
 22
        3.00000
 32
        0.00000
 13
        7.40000
 23
        3.00000
 33
        1.10000
999
F1_LIV:Mir-SHADING_F1_LIV_WALL14_BALC_WALL2
  0
3DFACE
  8
F1_LIV
 62
 13
 10
        7.40000
 20
        3.00000
 30
        1.10000
 11
        7.40000
 21
        3.00000
 31
        0.00000
 12
        7.40000
 22
        2.00000
 32
        0.00000
 13
        7.40000
 23
        2.00000
 33
        1.10000
999
F1_LIV:SHADING_F1_LIV_WALL14_BALC_WALL4
  0
3DFACE
  8
F1_LIV
 62
 13
 10
        5.70000
 20
        3.00000
 30
        1.10000
 11
        5.70000
 21
        3.00000
 31
        0.00000
 12
        5.70000
 22
        2.00000
 32
        0.00000
 13
        5.70000
 23
        2.00000
 33
        1.10000
999
F1_LIV:Mir-SHADING_F1_LIV_WALL14_BALC_WALL4
  0
3DFACE
  8
F1_LIV
 62
 13
 10
        5.70000
 20
        2.00000
 30
        1.10000
 11
        5.70000
 21
        2.00000
 31
        0.00000
 12
        5.70000
 22
        3.00000
 32
        0.00000
 13
        5.70000
 23
        3.00000
 33
        1.10000
999
F2_BWC:F2_BWC_WALL1_INT
  0
3DFACE
  8
F2_BWC
 62
 43
 10
        0.00000
 20
        3.00000
 30
        5.20000
 11
        0.00000
 21
        3.00000
 31
        2.60000
 12
        2.00000
 22
        3.00000
 32
        2.60000
 13
        2.00000
 23
        3.00000
 33
        5.20000
999
F2_BWC:F2_BWC_WALL2_INT
  0
3DFACE
  8
F2_BWC
 62
 43
 10
        2.00000
 20
        3.00000
 30
        5.20000
 11
        2.00000
 21
        3.00000
 31
        2.60000
 12
        2.00000
 22
        4.50000
 32
        2.60000
 13
        2.00000
 23
        4.50000
 33
        5.20000
999
F2_BWC:F2_BWC_DOOR2
  0
3DFACE
  8
F2_BWC
 62
 45
 10
        2.00000
 20
        3.35000
 30
        4.70000
 11
        2.00000
 21
        3.35000
 31
        2.60000
 12
        2.00000
 22
        4.15000
 32
        2.60000
 13
        2.00000
 23
        4.15000
 33
        4.70000
999
F2_BWC:F2_BWC_WALL3_INT
  0
3DFACE
  8
F2_BWC
 62
 43
 10
        2.00000
 20
        4.50000
 30
        5.20000
 11
        2.00000
 21
        4.50000
 31
        2.60000
 12
        0.00000
 22
        4.50000
 32
        2.60000
 13
        0.00000
 23
        4.50000
 33
        5.20000
999
F2_BWC:F2_BWC_WALL4_EXT
  0
3DFACE
  8
F2_BWC
 62
 43
 10
        0.00000
 20
        4.50000
 30
        5.20000
 11
        0.00000
 21
        4.50000
 31
        2.60000
 12
        0.00000
 22
        3.00000
 32
        2.60000
 13
        0.00000
 23
        3.00000
 33
        5.20000
999
F2_BWC:F2_BWC_WINDOW4
  0
3DFACE
  8
F2_BWC
 62
143
 10
        0.00000
 20
        4.05000
 30
        4.20000
 11
        0.00000
 21
        4.05000
 31
        3.60000
 12
        0.00000
 22
        3.45000
 32
        3.60000
 13
        0.00000
 23
        3.45000
 33
        4.20000
999
F2_BWC:F2_BWC_FLOOR
  0
3DFACE
  8
F2_BWC
 62
  8
 10
        2.00000
 20
        4.50000
 30
        2.60000
 11
        2.00000
 21
        3.00000
 31
        2.60000
 12
        0.00000
 22
        3.00000
 32
        2.60000
 13
        0.00000
 23
        4.50000
 33
        2.60000
999
F2_BWC:F2_BWC_ROOF
  0
3DFACE
  8
F2_BWC
 62
 15
 10
        0.00000
 20
        4.50000
 30
        5.20000
 11
        0.00000
 21
        3.00000
 31
        5.20000
 12
        2.00000
 22
        3.00000
 32
        5.20000
 13
        2.00000
 23
        4.50000
 33
        5.20000
999
F2_DORM1:F2_DORM1_WALL1_EXT
  0
3DFACE
  8
F2_DORM1
 62
 43
 10
        0.00000
 20
        0.00000
 30
        5.20000
 11
        0.00000
 21
        0.00000
 31
        2.60000
 12
        3.00000
 22
        0.00000
 32
        2.60000
 13
        3.00000
 23
        0.00000
 33
        5.20000
999
F2_DORM1:F2_DORM1_WINDOW1
  0
3DFACE
  8
F2_DORM1
 62
143
 10
        0.83000
 20
        0.00000
 30
        4.48000
 11
        0.83000
 21
        0.00000
 31
        3.32000
 12
        2.17000
 22
        0.00000
 32
        3.32000
 13
        2.17000
 23
        0.00000
 33
        4.48000
999
F2_DORM1:F2_DORM1_WALL2_INT
  0
3DFACE
  8
F2_DORM1
 62
 43
 10
        3.00000
 20
        0.00000
 30
        5.20000
 11
        3.00000
 21
        0.00000
 31
        2.60000
 12
        3.00000
 22
        3.00000
 32
        2.60000
 13
        3.00000
 23
        3.00000
 33
        5.20000
999
F2_DORM1:F2_DORM1_WALL4_EXT
  0
3DFACE
  8
F2_DORM1
 62
 43
 10
        0.00000
 20
        3.00000
 30
        5.20000
 11
        0.00000
 21
        3.00000
 31
        2.60000
 12
        0.00000
 22
        0.00000
 32
        2.60000
 13
        0.00000
 23
        0.00000
 33
        5.20000
999
F2_DORM1:F2_DORM1_WALL31_INT
  0
3DFACE
  8
F2_DORM1
 62
 43
 10
        3.00000
 20
        3.00000
 30
        5.20000
 11
        3.00000
 21
        3.00000
 31
        2.60000
 12
        2.00000
 22
        3.00000
 32
        2.60000
 13
        2.00000
 23
        3.00000
 33
        5.20000
999
F2_DORM1:F2_DORM1_DOOR3
  0
3DFACE
  8
F2_DORM1
 62
 45
 10
        2.90000
 20
        3.00000
 30
        4.70000
 11
        2.90000
 21
        3.00000
 31
        2.60000
 12
        2.10000
 22
        3.00000
 32
        2.60000
 13
        2.10000
 23
        3.00000
 33
        4.70000
999
F2_DORM1:F2_DORM1_WALL32_INT
  0
3DFACE
  8
F2_DORM1
 62
 43
 10
        2.00000
 20
        3.00000
 30
        5.20000
 11
        2.00000
 21
        3.00000
 31
        2.60000
 12
        0.00000
 22
        3.00000
 32
        2.60000
 13
        0.00000
 23
        3.00000
 33
        5.20000
999
F2_DORM1:F2_DORM1_FLOOR
  0
3DFACE
  8
F2_DORM1
 62
  8
 10
        3.00000
 20
        3.00000
 30
        2.60000
 11
        3.00000
 21
        0.00000
 31
        2.60000
 12
        0.00000
 22
        0.00000
 32
        2.60000
 13
        0.00000
 23
        3.00000
 33
        2.60000
999
F2_DORM1:F2_DORM1_ROOF
  0
3DFACE
  8
F2_DORM1
 62
 15
 10
        0.00000
 20
        3.00000
 30
        5.20000
 11
        0.00000
 21
        0.00000
 31
        5.20000
 12
        3.00000
 22
        0.00000
 32
        5.20000
 13
        3.00000
 23
        3.00000
 33
        5.20000
999
F2_DORM2:F2_DORM2_WALL1_EXT
  0
3DFACE
  8
F2_DORM2
 62
 43
 10
        3.00000
 20
        0.00000
 30
        5.20000
 11
        3.00000
 21
        0.00000
 31
        2.60000
 12
        5.70000
 22
        0.00000
 32
        2.60000
 13
        5.70000
 23
        0.00000
 33
        5.20000
999
F2_DORM2:F2_DORM2_WINDOW1
  0
3DFACE
  8
F2_DORM2
 62
143
 10
        3.74500
 20
        0.00000
 30
        4.48000
 11
        3.74500
 21
        0.00000
 31
        3.32000
 12
        4.95500
 22
        0.00000
 32
        3.32000
 13
        4.95500
 23
        0.00000
 33
        4.48000
999
F2_DORM2:F2_DORM2_WALL2_EXT
  0
3DFACE
  8
F2_DORM2
 62
 43
 10
        5.70000
 20
        0.00000
 30
        5.20000
 11
        5.70000
 21
        0.00000
 31
        2.60000
 12
        5.70000
 22
        3.00000
 32
        2.60000
 13
        5.70000
 23
        3.00000
 33
        5.20000
999
F2_DORM2:F2_DORM2_WALL3_INT
  0
3DFACE
  8
F2_DORM2
 62
 43
 10
        5.70000
 20
        3.00000
 30
        5.20000
 11
        5.70000
 21
        3.00000
 31
        2.60000
 12
        3.00000
 22
        3.00000
 32
        2.60000
 13
        3.00000
 23
        3.00000
 33
        5.20000
999
F2_DORM2:F2_DORM2_DOOR3
  0
3DFACE
  8
F2_DORM2
 62
 45
 10
        4.75000
 20
        3.00000
 30
        4.70000
 11
        4.75000
 21
        3.00000
 31
        2.60000
 12
        3.95000
 22
        3.00000
 32
        2.60000
 13
        3.95000
 23
        3.00000
 33
        4.70000
999
F2_DORM2:F2_DORM2_WALL4_INT
  0
3DFACE
  8
F2_DORM2
 62
 43
 10
        3.00000
 20
        3.00000
 30
        5.20000
 11
        3.00000
 21
        3.00000
 31
        2.60000
 12
        3.00000
 22
        0.00000
 32
        2.60000
 13
        3.00000
 23
        0.00000
 33
        5.20000
999
F2_DORM2:F2_DORM2_FLOOR
  0
3DFACE
  8
F2_DORM2
 62
  8
 10
        5.70000
 20
        3.00000
 30
        2.60000
 11
        5.70000
 21
        0.00000
 31
        2.60000
 12
        3.00000
 22
        0.00000
 32
        2.60000
 13
        3.00000
 23
        3.00000
 33
        2.60000
999
F2_DORM2:F2_DORM2_ROOF
  0
3DFACE
  8
F2_DORM2
 62
 15
 10
        3.00000
 20
        3.00000
 30
        5.20000
 11
        3.00000
 21
        0.00000
 31
        5.20000
 12
        5.70000
 22
        0.00000
 32
        5.20000
 13
        5.70000
 23
        3.00000
 33
        5.20000
999
F2_LIV:F2_LIV_WALL3_INT
  0
3DFACE
  8
F2_LIV
 62
 43
 10
        7.40000
 20
        3.00000
 30
        5.20000
 11
        7.40000
 21
        3.00000
 31
        2.60000
 12
        7.40000
 22
        6.40000
 32
        2.60000
 13
        7.40000
 23
        6.40000
 33
        5.20000
999
F2_LIV:F2_LIV_WALL4_INT
  0
3DFACE
  8
F2_LIV
 62
 43
 10
        7.40000
 20
        6.40000
 30
        5.20000
 11
        7.40000
 21
        6.40000
 31
        2.60000
 12
        0.00000
 22
        6.40000
 32
        2.60000
 13
        0.00000
 23
        6.40000
 33
        5.20000
999
F2_LIV:F2_LIV_WALL11_INT
  0
3DFACE
  8
F2_LIV
 62
 43
 10
        0.00000
 20
        4.50000
 30
        5.20000
 11
        0.00000
 21
        4.50000
 31
        2.60000
 12
        2.00000
 22
        4.50000
 32
        2.60000
 13
        2.00000
 23
        4.50000
 33
        5.20000
999
F2_LIV:F2_LIV_WALL12_INT
  0
3DFACE
  8
F2_LIV
 62
 43
 10
        2.00000
 20
        3.00000
 30
        5.20000
 11
        2.00000
 21
        3.00000
 31
        2.60000
 12
        3.00000
 22
        3.00000
 32
        2.60000
 13
        3.00000
 23
        3.00000
 33
        5.20000
999
F2_LIV:F2_LIV_DOOR11
  0
3DFACE
  8
F2_LIV
 62
 45
 10
        2.10000
 20
        3.00000
 30
        4.70000
 11
        2.10000
 21
        3.00000
 31
        2.60000
 12
        2.90000
 22
        3.00000
 32
        2.60000
 13
        2.90000
 23
        3.00000
 33
        4.70000
999
F2_LIV:F2_LIV_WALL13_INT
  0
3DFACE
  8
F2_LIV
 62
 43
 10
        3.00000
 20
        3.00000
 30
        5.20000
 11
        3.00000
 21
        3.00000
 31
        2.60000
 12
        5.70000
 22
        3.00000
 32
        2.60000
 13
        5.70000
 23
        3.00000
 33
        5.20000
999
F2_LIV:F2_LIV_DOOR12
  0
3DFACE
  8
F2_LIV
 62
 45
 10
        3.95000
 20
        3.00000
 30
        4.70000
 11
        3.95000
 21
        3.00000
 31
        2.60000
 12
        4.75000
 22
        3.00000
 32
        2.60000
 13
        4.75000
 23
        3.00000
 33
        4.70000
999
F2_LIV:F2_LIV_WALL14_BALC
  0
3DFACE
  8
F2_LIV
 62
 43
 10
        5.70000
 20
        3.00000
 30
        5.20000
 11
        5.70000
 21
        3.00000
 31
        2.60000
 12
        7.40000
 22
        3.00000
 32
        2.60000
 13
        7.40000
 23
        3.00000
 33
        5.20000
999
F2_LIV:F2_LIV_WINDOW1
  0
3DFACE
  8
F2_LIV
 62
143
 10
        6.17000
 20
        3.00000
 30
        4.48000
 11
        6.17000
 21
        3.00000
 31
        3.32000
 12
        6.93000
 22
        3.00000
 32
        3.32000
 13
        6.93000
 23
        3.00000
 33
        4.48000
999
F2_LIV:F2_LIV_WALL41_INT
  0
3DFACE
  8
F2_LIV
 62
 43
 10
        2.00000
 20
        4.50000
 30
        5.20000
 11
        2.00000
 21
        4.50000
 31
        2.60000
 12
        2.00000
 22
        3.00000
 32
        2.60000
 13
        2.00000
 23
        3.00000
 33
        5.20000
999
F2_LIV:F2_LIV_DOOR4
  0
3DFACE
  8
F2_LIV
 62
 45
 10
        2.00000
 20
        4.15000
 30
        4.70000
 11
        2.00000
 21
        4.15000
 31
        2.60000
 12
        2.00000
 22
        3.35000
 32
        2.60000
 13
        2.00000
 23
        3.35000
 33
        4.70000
999
F2_LIV:F2_LIV_WALL42_EXT
  0
3DFACE
  8
F2_LIV
 62
 43
 10
        0.00000
 20
        6.40000
 30
        5.20000
 11
        0.00000
 21
        6.40000
 31
        2.60000
 12
        0.00000
 22
        4.50000
 32
        2.60000
 13
        0.00000
 23
        4.50000
 33
        5.20000
999
F2_LIV:F2_LIV_WINDOW4
  0
3DFACE
  8
F2_LIV
 62
143
 10
        0.00000
 20
        5.87500
 30
        4.48000
 11
        0.00000
 21
        5.87500
 31
        3.32000
 12
        0.00000
 22
        5.02500
 32
        3.32000
 13
        0.00000
 23
        5.02500
 33
        4.48000
999
F2_LIV:F2_LIV_FLOOR
  0
POLYLINE
  8
F2_LIV
 62
  8
 66
  1
 10
 0.0
 20
 0.0
 30
        2.60000
 70
   9
 40
 0.55
 41
 0.55
  0
VERTEX
  8
F2_LIV
 10
        7.40000
 20
        6.40000
 30
        2.60000
  0
VERTEX
  8
F2_LIV
 10
        7.40000
 20
        3.00000
 30
        2.60000
  0
VERTEX
  8
F2_LIV
 10
        2.00000
 20
        3.00000
 30
        2.60000
  0
VERTEX
  8
F2_LIV
 10
        2.00000
 20
        4.50000
 30
        2.60000
  0
VERTEX
  8
F2_LIV
 10
        0.00000
 20
        4.50000
 30
        2.60000
  0
VERTEX
  8
F2_LIV
 10
        0.00000
 20
        6.40000
 30
        2.60000
  0
SEQEND
  8
F2_LIV
999
F2_LIV:F2_LIV_ROOF
  0
POLYLINE
  8
F2_LIV
 62
 15
 66
  1
 10
 0.0
 20
 0.0
 30
        5.20000
 70
   9
 40
 0.55
 41
 0.55
  0
VERTEX
  8
F2_LIV
 10
        0.00000
 20
        6.40000
 30
        5.20000
  0
VERTEX
  8
F2_LIV
 10
        0.00000
 20
        4.50000
 30
        5.20000
  0
VERTEX
  8
F2_LIV
 10
        2.00000
 20
        4.50000
 30
        5.20000
  0
VERTEX
  8
F2_LIV
 10
        2.00000
 20
        3.00000
 30
        5.20000
  0
VERTEX
  8
F2_LIV
 10
        7.40000
 20
        3.00000
 30
        5.20000
  0
VERTEX
  8
F2_LIV
 10
        7.40000
 20
        6.40000
 30
        5.20000
  0
SEQEND
  8
F2_LIV
999
F2_LIV:SHADING_F2_LIV_WALL14_BALC_FLOOR
  0
3DFACE
  8
F2_LIV
 62
 13
 10
        7.40000
 20
        3.00000
 30
        2.60000
 11
        7.40000
 21
        2.00000
 31
        2.60000
 12
        5.70000
 22
        2.00000
 32
        2.60000
 13
        5.70000
 23
        3.00000
 33
        2.60000
999
F2_LIV:Mir-SHADING_F2_LIV_WALL14_BALC_FLOOR
  0
3DFACE
  8
F2_LIV
 62
 13
 10
        5.70000
 20
        3.00000
 30
        2.60000
 11
        5.70000
 21
        2.00000
 31
        2.60000
 12
        7.40000
 22
        2.00000
 32
        2.60000
 13
        7.40000
 23
        3.00000
 33
        2.60000
999
F2_LIV:SHADING_F2_LIV_WALL14_BALC_ROOF
  0
3DFACE
  8
F2_LIV
 62
 13
 10
        5.70000
 20
        3.00000
 30
        5.20000
 11
        5.70000
 21
        2.00000
 31
        5.20000
 12
        7.40000
 22
        2.00000
 32
        5.20000
 13
        7.40000
 23
        3.00000
 33
        5.20000
999
F2_LIV:Mir-SHADING_F2_LIV_WALL14_BALC_ROOF
  0
3DFACE
  8
F2_LIV
 62
 13
 10
        7.40000
 20
        3.00000
 30
        5.20000
 11
        7.40000
 21
        2.00000
 31
        5.20000
 12
        5.70000
 22
        2.00000
 32
        5.20000
 13
        5.70000
 23
        3.00000
 33
        5.20000
999
F2_LIV:SHADING_F2_LIV_WALL14_BALC_WALL1
  0
3DFACE
  8
F2_LIV
 62
 13
 10
        5.70000
 20
        2.00000
 30
        3.70000
 11
        5.70000
 21
        2.00000
 31
        2.60000
 12
        7.40000
 22
        2.00000
 32
        2.60000
 13
        7.40000
 23
        2.00000
 33
        3.70000
999
F2_LIV:Mir-SHADING_F2_LIV_WALL14_BALC_WALL1
  0
3DFACE
  8
F2_LIV
 62
 13
 10
        7.40000
 20
        2.00000
 30
        3.70000
 11
        7.40000
 21
        2.00000
 31
        2.60000
 12
        5.70000
 22
        2.00000
 32
        2.60000
 13
        5.70000
 23
        2.00000
 33
        3.70000
999
F2_LIV:SHADING_F2_LIV_WALL14_BALC_WALL2
  0
3DFACE
  8
F2_LIV
 62
 13
 10
        7.40000
 20
        2.00000
 30
        3.70000
 11
        7.40000
 21
        2.00000
 31
        2.60000
 12
        7.40000
 22
        3.00000
 32
        2.60000
 13
        7.40000
 23
        3.00000
 33
        3.70000
999
F2_LIV:Mir-SHADING_F2_LIV_WALL14_BALC_WALL2
  0
3DFACE
  8
F2_LIV
 62
 13
 10
        7.40000
 20
        3.00000
 30
        3.70000
 11
        7.40000
 21
        3.00000
 31
        2.60000
 12
        7.40000
 22
        2.00000
 32
        2.60000
 13
        7.40000
 23
        2.00000
 33
        3.70000
999
F2_LIV:SHADING_F2_LIV_WALL14_BALC_WALL4
  0
3DFACE
  8
F2_LIV
 62
 13
 10
        5.70000
 20
        3.00000
 30
        3.70000
 11
        5.70000
 21
        3.00000
 31
        2.60000
 12
        5.70000
 22
        2.00000
 32
        2.60000
 13
        5.70000
 23
        2.00000
 33
        3.70000
999
F2_LIV:Mir-SHADING_F2_LIV_WALL14_BALC_WALL4
  0
3DFACE
  8
F2_LIV
 62
 13
 10
        5.70000
 20
        2.00000
 30
        3.70000
 11
        5.70000
 21
        2.00000
 31
        2.60000
 12
        5.70000
 22
        3.00000
 32
        2.60000
 13
        5.70000
 23
        3.00000
 33
        3.70000
999
F3_BWC:F3_BWC_WALL1_INT
  0
3DFACE
  8
F3_BWC
 62
 43
 10
        0.00000
 20
        3.00000
 30
        7.80000
 11
        0.00000
 21
        3.00000
 31
        5.20000
 12
        2.00000
 22
        3.00000
 32
        5.20000
 13
        2.00000
 23
        3.00000
 33
        7.80000
999
F3_BWC:F3_BWC_WALL2_INT
  0
3DFACE
  8
F3_BWC
 62
 43
 10
        2.00000
 20
        3.00000
 30
        7.80000
 11
        2.00000
 21
        3.00000
 31
        5.20000
 12
        2.00000
 22
        4.50000
 32
        5.20000
 13
        2.00000
 23
        4.50000
 33
        7.80000
999
F3_BWC:F3_BWC_DOOR2
  0
3DFACE
  8
F3_BWC
 62
 45
 10
        2.00000
 20
        3.35000
 30
        7.30000
 11
        2.00000
 21
        3.35000
 31
        5.20000
 12
        2.00000
 22
        4.15000
 32
        5.20000
 13
        2.00000
 23
        4.15000
 33
        7.30000
999
F3_BWC:F3_BWC_WALL3_INT
  0
3DFACE
  8
F3_BWC
 62
 43
 10
        2.00000
 20
        4.50000
 30
        7.80000
 11
        2.00000
 21
        4.50000
 31
        5.20000
 12
        0.00000
 22
        4.50000
 32
        5.20000
 13
        0.00000
 23
        4.50000
 33
        7.80000
999
F3_BWC:F3_BWC_WALL4_EXT
  0
3DFACE
  8
F3_BWC
 62
 43
 10
        0.00000
 20
        4.50000
 30
        7.80000
 11
        0.00000
 21
        4.50000
 31
        5.20000
 12
        0.00000
 22
        3.00000
 32
        5.20000
 13
        0.00000
 23
        3.00000
 33
        7.80000
999
F3_BWC:F3_BWC_WINDOW4
  0
3DFACE
  8
F3_BWC
 62
143
 10
        0.00000
 20
        4.05000
 30
        6.80000
 11
        0.00000
 21
        4.05000
 31
        6.20000
 12
        0.00000
 22
        3.45000
 32
        6.20000
 13
        0.00000
 23
        3.45000
 33
        6.80000
999
F3_BWC:F3_BWC_FLOOR
  0
3DFACE
  8
F3_BWC
 62
  8
 10
        2.00000
 20
        4.50000
 30
        5.20000
 11
        2.00000
 21
        3.00000
 31
        5.20000
 12
        0.00000
 22
        3.00000
 32
        5.20000
 13
        0.00000
 23
        4.50000
 33
        5.20000
999
F3_BWC:F3_BWC_ROOF
  0
3DFACE
  8
F3_BWC
 62
 15
 10
        0.00000
 20
        4.50000
 30
        7.80000
 11
        0.00000
 21
        3.00000
 31
        7.80000
 12
        2.00000
 22
        3.00000
 32
        7.80000
 13
        2.00000
 23
        4.50000
 33
        7.80000
999
F3_DORM1:F3_DORM1_WALL1_EXT
  0
3DFACE
  8
F3_DORM1
 62
 43
 10
        0.00000
 20
        0.00000
 30
        7.80000
 11
        0.00000
 21
        0.00000
 31
        5.20000
 12
        3.00000
 22
        0.00000
 32
        5.20000
 13
        3.00000
 23
        0.00000
 33
        7.80000
999
F3_DORM1:F3_DORM1_WINDOW1
  0
3DFACE
  8
F3_DORM1
 62
143
 10
        0.83000
 20
        0.00000
 30
        7.08000
 11
        0.83000
 21
        0.00000
 31
        5.92000
 12
        2.17000
 22
        0.00000
 32
        5.92000
 13
        2.17000
 23
        0.00000
 33
        7.08000
999
F3_DORM1:F3_DORM1_WALL2_INT
  0
3DFACE
  8
F3_DORM1
 62
 43
 10
        3.00000
 20
        0.00000
 30
        7.80000
 11
        3.00000
 21
        0.00000
 31
        5.20000
 12
        3.00000
 22
        3.00000
 32
        5.20000
 13
        3.00000
 23
        3.00000
 33
        7.80000
999
F3_DORM1:F3_DORM1_WALL4_EXT
  0
3DFACE
  8
F3_DORM1
 62
 43
 10
        0.00000
 20
        3.00000
 30
        7.80000
 11
        0.00000
 21
        3.00000
 31
        5.20000
 12
        0.00000
 22
        0.00000
 32
        5.20000
 13
        0.00000
 23
        0.00000
 33
        7.80000
999
F3_DORM1:F3_DORM1_WALL31_INT
  0
3DFACE
  8
F3_DORM1
 62
 43
 10
        3.00000
 20
        3.00000
 30
        7.80000
 11
        3.00000
 21
        3.00000
 31
        5.20000
 12
        2.00000
 22
        3.00000
 32
        5.20000
 13
        2.00000
 23
        3.00000
 33
        7.80000
999
F3_DORM1:F3_DORM1_DOOR3
  0
3DFACE
  8
F3_DORM1
 62
 45
 10
        2.90000
 20
        3.00000
 30
        7.30000
 11
        2.90000
 21
        3.00000
 31
        5.20000
 12
        2.10000
 22
        3.00000
 32
        5.20000
 13
        2.10000
 23
        3.00000
 33
        7.30000
999
F3_DORM1:F3_DORM1_WALL32_INT
  0
3DFACE
  8
F3_DORM1
 62
 43
 10
        2.00000
 20
        3.00000
 30
        7.80000
 11
        2.00000
 21
        3.00000
 31
        5.20000
 12
        0.00000
 22
        3.00000
 32
        5.20000
 13
        0.00000
 23
        3.00000
 33
        7.80000
999
F3_DORM1:F3_DORM1_FLOOR
  0
3DFACE
  8
F3_DORM1
 62
  8
 10
        3.00000
 20
        3.00000
 30
        5.20000
 11
        3.00000
 21
        0.00000
 31
        5.20000
 12
        0.00000
 22
        0.00000
 32
        5.20000
 13
        0.00000
 23
        3.00000
 33
        5.20000
999
F3_DORM1:F3_DORM1_ROOF
  0
3DFACE
  8
F3_DORM1
 62
 15
 10
        0.00000
 20
        3.00000
 30
        7.80000
 11
        0.00000
 21
        0.00000
 31
        7.80000
 12
        3.00000
 22
        0.00000
 32
        7.80000
 13
        3.00000
 23
        3.00000
 33
        7.80000
999
F3_DORM2:F3_DORM2_WALL1_EXT
  0
3DFACE
  8
F3_DORM2
 62
 43
 10
        3.00000
 20
        0.00000
 30
        7.80000
 11
        3.00000
 21
        0.00000
 31
        5.20000
 12
        5.70000
 22
        0.00000
 32
        5.20000
 13
        5.70000
 23
        0.00000
 33
        7.80000
999
F3_DORM2:F3_DORM2_WINDOW1
  0
3DFACE
  8
F3_DORM2
 62
143
 10
        3.74500
 20
        0.00000
 30
        7.08000
 11
        3.74500
 21
        0.00000
 31
        5.92000
 12
        4.95500
 22
        0.00000
 32
        5.92000
 13
        4.95500
 23
        0.00000
 33
        7.08000
999
F3_DORM2:F3_DORM2_WALL2_EXT
  0
3DFACE
  8
F3_DORM2
 62
 43
 10
        5.70000
 20
        0.00000
 30
        7.80000
 11
        5.70000
 21
        0.00000
 31
        5.20000
 12
        5.70000
 22
        3.00000
 32
        5.20000
 13
        5.70000
 23
        3.00000
 33
        7.80000
999
F3_DORM2:F3_DORM2_WALL3_INT
  0
3DFACE
  8
F3_DORM2
 62
 43
 10
        5.70000
 20
        3.00000
 30
        7.80000
 11
        5.70000
 21
        3.00000
 31
        5.20000
 12
        3.00000
 22
        3.00000
 32
        5.20000
 13
        3.00000
 23
        3.00000
 33
        7.80000
999
F3_DORM2:F3_DORM2_DOOR3
  0
3DFACE
  8
F3_DORM2
 62
 45
 10
        4.75000
 20
        3.00000
 30
        7.30000
 11
        4.75000
 21
        3.00000
 31
        5.20000
 12
        3.95000
 22
        3.00000
 32
        5.20000
 13
        3.95000
 23
        3.00000
 33
        7.30000
999
F3_DORM2:F3_DORM2_WALL4_INT
  0
3DFACE
  8
F3_DORM2
 62
 43
 10
        3.00000
 20
        3.00000
 30
        7.80000
 11
        3.00000
 21
        3.00000
 31
        5.20000
 12
        3.00000
 22
        0.00000
 32
        5.20000
 13
        3.00000
 23
        0.00000
 33
        7.80000
999
F3_DORM2:F3_DORM2_FLOOR
  0
3DFACE
  8
F3_DORM2
 62
  8
 10
        5.70000
 20
        3.00000
 30
        5.20000
 11
        5.70000
 21
        0.00000
 31
        5.20000
 12
        3.00000
 22
        0.00000
 32
        5.20000
 13
        3.00000
 23
        3.00000
 33
        5.20000
999
F3_DORM2:F3_DORM2_ROOF
  0
3DFACE
  8
F3_DORM2
 62
 15
 10
        3.00000
 20
        3.00000
 30
        7.80000
 11
        3.00000
 21
        0.00000
 31
        7.80000
 12
        5.70000
 22
        0.00000
 32
        7.80000
 13
        5.70000
 23
        3.00000
 33
        7.80000
999
F3_LIV:F3_LIV_WALL3_INT
  0
3DFACE
  8
F3_LIV
 62
 43
 10
        7.40000
 20
        3.00000
 30
        7.80000
 11
        7.40000
 21
        3.00000
 31
        5.20000
 12
        7.40000
 22
        6.40000
 32
        5.20000
 13
        7.40000
 23
        6.40000
 33
        7.80000
999
F3_LIV:F3_LIV_WALL4_INT
  0
3DFACE
  8
F3_LIV
 62
 43
 10
        7.40000
 20
        6.40000
 30
        7.80000
 11
        7.40000
 21
        6.40000
 31
        5.20000
 12
        0.00000
 22
        6.40000
 32
        5.20000
 13
        0.00000
 23
        6.40000
 33
        7.80000
999
F3_LIV:F3_LIV_WALL11_INT
  0
3DFACE
  8
F3_LIV
 62
 43
 10
        0.00000
 20
        4.50000
 30
        7.80000
 11
        0.00000
 21
        4.50000
 31
        5.20000
 12
        2.00000
 22
        4.50000
 32
        5.20000
 13
        2.00000
 23
        4.50000
 33
        7.80000
999
F3_LIV:F3_LIV_WALL12_INT
  0
3DFACE
  8
F3_LIV
 62
 43
 10
        2.00000
 20
        3.00000
 30
        7.80000
 11
        2.00000
 21
        3.00000
 31
        5.20000
 12
        3.00000
 22
        3.00000
 32
        5.20000
 13
        3.00000
 23
        3.00000
 33
        7.80000
999
F3_LIV:F3_LIV_DOOR11
  0
3DFACE
  8
F3_LIV
 62
 45
 10
        2.10000
 20
        3.00000
 30
        7.30000
 11
        2.10000
 21
        3.00000
 31
        5.20000
 12
        2.90000
 22
        3.00000
 32
        5.20000
 13
        2.90000
 23
        3.00000
 33
        7.30000
999
F3_LIV:F3_LIV_WALL13_INT
  0
3DFACE
  8
F3_LIV
 62
 43
 10
        3.00000
 20
        3.00000
 30
        7.80000
 11
        3.00000
 21
        3.00000
 31
        5.20000
 12
        5.70000
 22
        3.00000
 32
        5.20000
 13
        5.70000
 23
        3.00000
 33
        7.80000
999
F3_LIV:F3_LIV_DOOR12
  0
3DFACE
  8
F3_LIV
 62
 45
 10
        3.95000
 20
        3.00000
 30
        7.30000
 11
        3.95000
 21
        3.00000
 31
        5.20000
 12
        4.75000
 22
        3.00000
 32
        5.20000
 13
        4.75000
 23
        3.00000
 33
        7.30000
999
F3_LIV:F3_LIV_WALL14_BALC
  0
3DFACE
  8
F3_LIV
 62
 43
 10
        5.70000
 20
        3.00000
 30
        7.80000
 11
        5.70000
 21
        3.00000
 31
        5.20000
 12
        7.40000
 22
        3.00000
 32
        5.20000
 13
        7.40000
 23
        3.00000
 33
        7.80000
999
F3_LIV:F3_LIV_WINDOW1
  0
3DFACE
  8
F3_LIV
 62
143
 10
        6.17000
 20
        3.00000
 30
        7.08000
 11
        6.17000
 21
        3.00000
 31
        5.92000
 12
        6.93000
 22
        3.00000
 32
        5.92000
 13
        6.93000
 23
        3.00000
 33
        7.08000
999
F3_LIV:F3_LIV_WALL41_INT
  0
3DFACE
  8
F3_LIV
 62
 43
 10
        2.00000
 20
        4.50000
 30
        7.80000
 11
        2.00000
 21
        4.50000
 31
        5.20000
 12
        2.00000
 22
        3.00000
 32
        5.20000
 13
        2.00000
 23
        3.00000
 33
        7.80000
999
F3_LIV:F3_LIV_DOOR4
  0
3DFACE
  8
F3_LIV
 62
 45
 10
        2.00000
 20
        4.15000
 30
        7.30000
 11
        2.00000
 21
        4.15000
 31
        5.20000
 12
        2.00000
 22
        3.35000
 32
        5.20000
 13
        2.00000
 23
        3.35000
 33
        7.30000
999
F3_LIV:F3_LIV_WALL42_EXT
  0
3DFACE
  8
F3_LIV
 62
 43
 10
        0.00000
 20
        6.40000
 30
        7.80000
 11
        0.00000
 21
        6.40000
 31
        5.20000
 12
        0.00000
 22
        4.50000
 32
        5.20000
 13
        0.00000
 23
        4.50000
 33
        7.80000
999
F3_LIV:F3_LIV_WINDOW4
  0
3DFACE
  8
F3_LIV
 62
143
 10
        0.00000
 20
        5.87500
 30
        7.08000
 11
        0.00000
 21
        5.87500
 31
        5.92000
 12
        0.00000
 22
        5.02500
 32
        5.92000
 13
        0.00000
 23
        5.02500
 33
        7.08000
999
F3_LIV:F3_LIV_FLOOR
  0
POLYLINE
  8
F3_LIV
 62
  8
 66
  1
 10
 0.0
 20
 0.0
 30
        5.20000
 70
   9
 40
 0.55
 41
 0.55
  0
VERTEX
  8
F3_LIV
 10
        7.40000
 20
        6.40000
 30
        5.20000
  0
VERTEX
  8
F3_LIV
 10
        7.40000
 20
        3.00000
 30
        5.20000
  0
VERTEX
  8
F3_LIV
 10
        2.00000
 20
        3.00000
 30
        5.20000
  0
VERTEX
  8
F3_LIV
 10
        2.00000
 20
        4.50000
 30
        5.20000
  0
VERTEX
  8
F3_LIV
 10
        0.00000
 20
        4.50000
 30
        5.20000
  0
VERTEX
  8
F3_LIV
 10
        0.00000
 20
        6.40000
 30
        5.20000
  0
SEQEND
  8
F3_LIV
999
F3_LIV:F3_LIV_ROOF
  0
POLYLINE
  8
F3_LIV
 62
 15
 66
  1
 10
 0.0
 20
 0.0
 30
        7.80000
 70
   9
 40
 0.55
 41
 0.55
  0
VERTEX
  8
F3_LIV
 10
        0.00000
 20
        6.40000
 30
        7.80000
  0
VERTEX
  8
F3_LIV
 10
        0.00000
 20
        4.50000
 30
        7.80000
  0
VERTEX
  8
F3_LIV
 10
        2.00000
 20
        4.50000
 30
        7.80000
  0
VERTEX
  8
F3_LIV
 10
        2.00000
 20
        3.00000
 30
        7.80000
  0
VERTEX
  8
F3_LIV
 10
        7.40000
 20
        3.00000
 30
        7.80000
  0
VERTEX
  8
F3_LIV
 10
        7.40000
 20
        6.40000
 30
        7.80000
  0
SEQEND
  8
F3_LIV
999
F3_LIV:SHADING_F3_LIV_WALL14_BALC_FLOOR
  0
3DFACE
  8
F3_LIV
 62
 13
 10
        7.40000
 20
        3.00000
 30
        5.20000
 11
        7.40000
 21
        2.00000
 31
        5.20000
 12
        5.70000
 22
        2.00000
 32
        5.20000
 13
        5.70000
 23
        3.00000
 33
        5.20000
999
F3_LIV:Mir-SHADING_F3_LIV_WALL14_BALC_FLOOR
  0
3DFACE
  8
F3_LIV
 62
 13
 10
        5.70000
 20
        3.00000
 30
        5.20000
 11
        5.70000
 21
        2.00000
 31
        5.20000
 12
        7.40000
 22
        2.00000
 32
        5.20000
 13
        7.40000
 23
        3.00000
 33
        5.20000
999
F3_LIV:SHADING_F3_LIV_WALL14_BALC_ROOF
  0
3DFACE
  8
F3_LIV
 62
 13
 10
        5.70000
 20
        3.00000
 30
        7.80000
 11
        5.70000
 21
        2.00000
 31
        7.80000
 12
        7.40000
 22
        2.00000
 32
        7.80000
 13
        7.40000
 23
        3.00000
 33
        7.80000
999
F3_LIV:Mir-SHADING_F3_LIV_WALL14_BALC_ROOF
  0
3DFACE
  8
F3_LIV
 62
 13
 10
        7.40000
 20
        3.00000
 30
        7.80000
 11
        7.40000
 21
        2.00000
 31
        7.80000
 12
        5.70000
 22
        2.00000
 32
        7.80000
 13
        5.70000
 23
        3.00000
 33
        7.80000
999
F3_LIV:SHADING_F3_LIV_WALL14_BALC_WALL1
  0
3DFACE
  8
F3_LIV
 62
 13
 10
        5.70000
 20
        2.00000
 30
        6.30000
 11
        5.70000
 21
        2.00000
 31
        5.20000
 12
        7.40000
 22
        2.00000
 32
        5.20000
 13
        7.40000
 23
        2.00000
 33
        6.30000
999
F3_LIV:Mir-SHADING_F3_LIV_WALL14_BALC_WALL1
  0
3DFACE
  8
F3_LIV
 62
 13
 10
        7.40000
 20
        2.00000
 30
        6.30000
 11
        7.40000
 21
        2.00000
 31
        5.20000
 12
        5.70000
 22
        2.00000
 32
        5.20000
 13
        5.70000
 23
        2.00000
 33
        6.30000
999
F3_LIV:SHADING_F3_LIV_WALL14_BALC_WALL2
  0
3DFACE
  8
F3_LIV
 62
 13
 10
        7.40000
 20
        2.00000
 30
        6.30000
 11
        7.40000
 21
        2.00000
 31
        5.20000
 12
        7.40000
 22
        3.00000
 32
        5.20000
 13
        7.40000
 23
        3.00000
 33
        6.30000
999
F3_LIV:Mir-SHADING_F3_LIV_WALL14_BALC_WALL2
  0
3DFACE
  8
F3_LIV
 62
 13
 10
        7.40000
 20
        3.00000
 30
        6.30000
 11
        7.40000
 21
        3.00000
 31
        5.20000
 12
        7.40000
 22
        2.00000
 32
        5.20000
 13
        7.40000
 23
        2.00000
 33
        6.30000
999
F3_LIV:SHADING_F3_LIV_WALL14_BALC_WALL4
  0
3DFACE
  8
F3_LIV
 62
 13
 10
        5.70000
 20
        3.00000
 30
        6.30000
 11
        5.70000
 21
        3.00000
 31
        5.20000
 12
        5.70000
 22
        2.00000
 32
        5.20000
 13
        5.70000
 23
        2.00000
 33
        6.30000
999
F3_LIV:Mir-SHADING_F3_LIV_WALL14_BALC_WALL4
  0
3DFACE
  8
F3_LIV
 62
 13
 10
        5.70000
 20
        2.00000
 30
        6.30000
 11
        5.70000
 21
        2.00000
 31
        5.20000
 12
        5.70000
 22
        3.00000
 32
        5.20000
 13
        5.70000
 23
        3.00000
 33
        6.30000
  0
ENDSEC
  0
EOF
